Script started on Sat 08 Mar 2014 03:59:24 PM CST
]0;robin@ubuntu: ~/gpgpu_Mar_1/gpgpu-sim/ispass2009-benchmarks/AESrobin@ubuntu:~/gpgpu_Mar_1/gpgpu-sim/ispass2009-benchmarks/AES$ gedit 8_Mar_1Day.log 
]0;robin@ubuntu: ~/gpgpu_Mar_1/gpgpu-sim/ispass2009-benchmarks/AESrobin@ubuntu:~/gpgpu_Mar_1/gpgpu-sim/ispass2009-benchmarks/AES$ gedit 8_Mar_1Day.log source setup_environmentmake[Kmke\[K[K[K[K[K[Ksh README.GPGPU-Sim


        *** GPGPU-Sim Simulator Version 3.2.2  [build 17315] ***


GPGPU-Sim PTX: simulation mode 0 (can change with PTX_SIM_MODE_FUNC environment variable:
               1=functional simulation only, 0=detailed performance simulator)
GPGPU-Sim: Configuration options:

-network_mode                           1 # Interconnection network mode
-inter_config_file   config_quadro_islip.icnt # Interconnection network config file
-gpgpu_ptx_use_cuobjdump                    1 # Use cuobjdump to extract ptx and sass from binaries
-gpgpu_experimental_lib_support                    0 # Try to extract code from cuda libraries [Broken because of unknown cudaGetExportTable]
-gpgpu_ptx_convert_to_ptxplus                    0 # Convert SASS (native ISA) to ptxplus and run ptxplus
-gpgpu_ptx_force_max_capability                   13 # Force maximum compute capability
-gpgpu_ptx_inst_debug_to_file                    0 # Dump executed instructions' debug information to file
-gpgpu_ptx_inst_debug_file       inst_debug.txt # Executed instructions' debug output file
-gpgpu_ptx_inst_debug_thread_uid                    1 # Thread UID for executed instructions' debug output
-gpgpu_simd_model                       1 # 1 = post-dominator
-gpgpu_shader_core_pipeline              1024:32 # shader core pipeline config, i.e., {<nthread>:<warpsize>}
-gpgpu_tex_cache:l1  16:128:4,L:R:m:N,F:128:4,128:2 # per-shader L1 texture cache  (READ-ONLY) config  {<nsets>:<bsize>:<assoc>,<rep>:<wr>:<alloc>:<wr_alloc>,<mshr>:<N>:<merge>,<mq>:<rf>}
-gpgpu_const_cache:l1 16:128:4,L:R:f:N,A:2:32,4 # per-shader L1 constant memory cache  (READ-ONLY) config  {<nsets>:<bsize>:<assoc>,<rep>:<wr>:<alloc>:<wr_alloc>,<mshr>:<N>:<merge>,<mq>} 
-gpgpu_cache:il1     4:128:4,L:R:f:N,A:2:32,4 # shader L1 instruction cache config  {<nsets>:<bsize>:<assoc>,<rep>:<wr>:<alloc>:<wr_alloc>,<mshr>:<N>:<merge>,<mq>} 
-gpgpu_cache:dl1     32:128:8,L:L:m:N,A:64:8,8 # per-shader L1 data cache config  {<nsets>:<bsize>:<assoc>,<rep>:<wr>:<alloc>:<wr_alloc>,<mshr>:<N>:<merge>,<mq> | none}
-gpgpu_cache:dl1PrefL1                 none # per-shader L1 data cache config  {<nsets>:<bsize>:<assoc>,<rep>:<wr>:<alloc>:<wr_alloc>,<mshr>:<N>:<merge>,<mq> | none}
-gpgpu_cache:dl1PreShared                 none # per-shader L1 data cache config  {<nsets>:<bsize>:<assoc>,<rep>:<wr>:<alloc>:<wr_alloc>,<mshr>:<N>:<merge>,<mq> | none}
-gmem_skip_L1D                          0 # global memory access skip L1D cache (implements -Xptxas -dlcm=cg, default=no skip)
-gpgpu_perfect_mem                      0 # enable perfect memory mode (no cache miss)
-n_regfile_gating_group                    4 # group of lanes that should be read/written together)
-gpgpu_clock_gated_reg_file                    0 # enable clock gated reg file for power calculations
-gpgpu_clock_gated_lanes                    0 # enable clock gated lanes for power calculations
-gpgpu_shader_registers                32684 # Number of registers per shader core. Limits number of concurrent CTAs. (default 8192)
-gpgpu_shader_cta                       8 # Maximum number of concurrent CTAs in shader (default 8)
-gpgpu_n_clusters                      10 # number of processing clusters
-gpgpu_n_cores_per_cluster                    3 # number of simd cores per cluster
-gpgpu_n_cluster_ejection_buffer_size                    8 # number of packets in ejection buffer
-gpgpu_n_ldst_response_buffer_size                    2 # number of response packets in ld/st unit ejection buffer
-gpgpu_shmem_size                   16384 # Size of shared memory per shader core (default 16kB)
-gpgpu_shmem_size                   32768 # Size of shared memory per shader core (default 16kB)
-gpgpu_shmem_size_PrefL1                16384 # Size of shared memory per shader core (default 16kB)
-gpgpu_shmem_size_PrefShared                16384 # Size of shared memory per shader core (default 16kB)
-gpgpu_shmem_num_banks                   16 # Number of banks in the shared memory in each shader core (default 16)
-gpgpu_shmem_limited_broadcast                    1 # Limit shared memory to do one broadcast per cycle (default on)
-gpgpu_shmem_warp_parts                    2 # Number of portions a warp is divided into for shared memory bank conflict check 
-gpgpu_warpdistro_shader                   -1 # Specify which shader core to collect the warp size distribution from
-gpgpu_warp_issue_shader                    0 # Specify which shader core to collect the warp issue distribution from
-gpgpu_local_mem_map                    1 # Mapping from local memory space address to simulated GPU physical address space (default = enabled)
-gpgpu_num_reg_banks                    8 # Number of register banks (default = 8)
-gpgpu_reg_bank_use_warp_id                    0 # Use warp ID in mapping registers to banks (default = off)
-gpgpu_operand_collector_num_units_sp                    6 # number of collector units (default = 4)
-gpgpu_operand_collector_num_units_sfu                    8 # number of collector units (default = 4)
-gpgpu_operand_collector_num_units_mem                    2 # number of collector units (default = 2)
-gpgpu_operand_collector_num_units_gen                    0 # number of collector units (default = 0)
-gpgpu_operand_collector_num_in_ports_sp                    1 # number of collector unit in ports (default = 1)
-gpgpu_operand_collector_num_in_ports_sfu                    1 # number of collector unit in ports (default = 1)
-gpgpu_operand_collector_num_in_ports_mem                    1 # number of collector unit in ports (default = 1)
-gpgpu_operand_collector_num_in_ports_gen                    0 # number of collector unit in ports (default = 0)
-gpgpu_operand_collector_num_out_ports_sp                    1 # number of collector unit in ports (default = 1)
-gpgpu_operand_collector_num_out_ports_sfu                    1 # number of collector unit in ports (default = 1)
-gpgpu_operand_collector_num_out_ports_mem                    1 # number of collector unit in ports (default = 1)
-gpgpu_operand_collector_num_out_ports_gen                    0 # number of collector unit in ports (default = 0)
-gpgpu_coalesce_arch                   13 # Coalescing arch (default = 13, anything else is off for now)
-gpgpu_num_sched_per_core                    1 # Number of warp schedulers per core
-gpgpu_max_insn_issue_per_warp                    2 # Max number of instructions that can be issued per warp in one cycle by scheduler
-gpgpu_simt_core_sim_order                    1 # Select the simulation order of cores in a cluster (0=Fix, 1=Round-Robin)
-gpgpu_pipeline_widths        1,1,1,1,1,1,1 # Pipeline widths ID_OC_SP,ID_OC_SFU,ID_OC_MEM,OC_EX_SP,OC_EX_SFU,OC_EX_MEM,EX_WB
-gpgpu_num_sp_units                     1 # Number of SP units (default=1)
-gpgpu_num_sfu_units                    1 # Number of SF units (default=1)
-gpgpu_num_mem_units                    1 # Number if ldst units (default=1) WARNING: not hooked up to anything
-gpgpu_scheduler                      gto # Scheduler configuration: < lrr | gto | two_level_active > If two_level_active:<num_active_warps>:<inner_prioritization>:<outer_prioritization>For complete list of prioritization values see shader.h enum scheduler_prioritization_typeDefault: gto
-gpgpu_dram_scheduler                    1 # 0 = fifo, 1 = FR-FCFS (defaul)
-gpgpu_dram_partition_queues              8:8:8:8 # i2$:$2d:d2$:$2i
-l2_ideal                               0 # Use a ideal L2 cache that always hit
-gpgpu_cache:dl2     17476:256:16,L:B:m:W,A:16:4,4 # unified banked L2 data cache config  {<nsets>:<bsize>:<assoc>,<rep>:<wr>:<alloc>:<wr_alloc>,<mshr>:<N>:<merge>,<mq>}
-gpgpu_cache:dl2_texture_only                    1 # L2 cache used for texture only
-gpgpu_n_mem                            8 # number of memory modules (e.g. memory controllers) in gpu
-gpgpu_n_sub_partition_per_mchannel                    1 # number of memory subpartition in each memory module
-gpgpu_n_mem_per_ctrlr                    2 # number of memory chips per memory controller
-gpgpu_memlatency_stat                   14 # track and display latency statistics 0x2 enables MC, 0x4 enables queue logs
-gpgpu_frfcfs_dram_sched_queue_size                   16 # 0 = unlimited (default); # entries per chip
-gpgpu_dram_return_queue_size                  128 # 0 = unlimited (default); # entries per chip
-gpgpu_dram_buswidth                    4 # default = 4 bytes (8 bytes per cycle at DDR)
-gpgpu_dram_burst_length                    4 # Burst length of each DRAM request (default = 4 data bus cycle)
-dram_data_command_freq_ratio                    2 # Frequency ratio between DRAM data bus and command bus (default = 2 times, i.e. DDR)
-gpgpu_dram_timing_opt nbk=8:CCD=2:RRD=6:RCD=12:RAS=15:RP=0:RC=15:CL=1:WL=1:CDLR=5:WR=7 # DRAM timing parameters = {nbk:tCCD:tRRD:tRCD:tRAS:tRP:tRC:CL:WL:tCDLR:tWR:nbkgrp:tCCDL:tRTPL}
-rop_latency                           85 # ROP queue latency (default 85)
-dram_latency                          12 # DRAM latency (default 30)
-gpgpu_mem_addr_mapping dramid@8;00000000.00000000.00000000.00000000.0000RRRR.RRRRRRRR.RRBBBCCC.CCCSSSSS # mapping memory address to dram model {dramid@<start bit>;<memory address map>}
-gpgpu_mem_addr_test                    0 # run sweep test to check address mapping for aliased address
-gpgpu_mem_address_mask                    1 # 0 = old addressing mask, 1 = new addressing mask, 2 = new add. mask + flipped bank sel and chip sel bits
-gpuwattch_xml_file         gpuwattch.xml # GPUWattch XML file
-power_simulation_enabled                    0 # Turn on power simulator (1=On, 0=Off)
-power_per_cycle_dump                    0 # Dump detailed power output each cycle
-power_trace_enabled                    0 # produce a file for the power trace (1=On, 0=Off)
-power_trace_zlevel                     6 # Compression level of the power trace output log (0=no comp, 9=highest)
-steady_power_levels_enabled                    0 # produce a file for the steady power levels (1=On, 0=Off)
-steady_state_definition                  8:4 # allowed deviation:number of samples
-gpgpu_max_cycle                        0 # terminates gpu simulation early (0 = no limit)
-gpgpu_max_insn                         0 # terminates gpu simulation early (0 = no limit)
-gpgpu_max_cta                          0 # terminates gpu simulation early (0 = no limit)
-gpgpu_runtime_stat                   500 # display runtime statistics such as dram utilization {<freq>:<flag>}
-liveness_message_freq                    1 # Minimum number of seconds between simulation liveness messages (0 = always print)
-gpgpu_flush_l1_cache                    0 # Flush L1 cache at the end of each kernel call
-gpgpu_flush_l2_cache                    0 # Flush L2 cache at the end of each kernel call
-gpgpu_deadlock_detect                    1 # Stop the simulation at deadlock (1=on (default), 0=off)
-gpgpu_ptx_instruction_classification                    0 # if enabled will classify ptx instruction types per kernel (Max 255 kernels now)
-gpgpu_ptx_sim_mode                     0 # Select between Performance (default) or Functional simulation (1)
-gpgpu_clock_domains 325.0:650.0:650.0:1000.0 # Clock Domain Frequencies in MhZ {<Core Clock>:<ICNT Clock>:<L2 Clock>:<DRAM Clock>}
-gpgpu_max_concurrent_kernel                    8 # maximum kernels that can run concurrently on GPU
-gpgpu_cflog_interval                    0 # Interval between each snapshot in control flow logger
-visualizer_enabled                     0 # Turn on visualizer output (1=On, 0=Off)
-visualizer_outputfile                 NULL # Specifies the output log file for visualizer
-visualizer_zlevel                      6 # Compression level of the visualizer output log (0=no comp, 9=highest)
-trace_enabled                          0 # Turn on traces
-trace_components                    none # comma seperated list of traces to enable. Complete list found in trace_streams.tup. Default none
-trace_sampling_core                    0 # The core which is printed using CORE_DPRINTF. Default 0
-trace_sampling_memory_partition                   -1 # The memory partition which is printed using MEMPART_DPRINTF. Default -1 (i.e. all)
-enable_ptx_file_line_stats                    1 # Turn on PTX source line statistic profiling. (1 = On)
-ptx_line_stats_filename gpgpu_inst_stats.txt # Output file for PTX source line statistics.
-save_embedded_ptx                      0 # saves ptx files embedded in binary as <n>.ptx
-keep                                   0 # keep intermediate files created by GPGPU-Sim when interfacing with external programs
-gpgpu_ptx_save_converted_ptxplus                    0 # Saved converted ptxplus to a file
-ptx_opcode_latency_int        1,1,19,25,145 # Opcode latencies for integers <ADD,MAX,MUL,MAD,DIV>Default 1,1,19,25,145
-ptx_opcode_latency_fp           1,1,1,1,30 # Opcode latencies for single precision floating points <ADD,MAX,MUL,MAD,DIV>Default 1,1,1,1,30
-ptx_opcode_latency_dp          8,8,8,8,335 # Opcode latencies for double precision floating points <ADD,MAX,MUL,MAD,DIV>Default 8,8,8,8,335
-ptx_opcode_initiation_int           1,1,4,4,32 # Opcode initiation intervals for integers <ADD,MAX,MUL,MAD,DIV>Default 1,1,4,4,32
-ptx_opcode_initiation_fp            1,1,1,1,5 # Opcode initiation intervals for single precision floating points <ADD,MAX,MUL,MAD,DIV>Default 1,1,1,1,5
-ptx_opcode_initiation_dp          8,8,8,8,130 # Opcode initiation intervals for double precision floating points <ADD,MAX,MUL,MAD,DIV>Default 8,8,8,8,130
DRAM Timing Options:
nbk                                     8 # number of banks
CCD                                     2 # column to column delay
RRD                                     6 # minimal delay between activation of rows in different banks
RCD                                    12 # row to column delay
RAS                                    15 # time needed to activate row
RP                                      0 # time needed to precharge (deactivate) row
RC                                     15 # row cycle time
CDLR                                    5 # switching from write to read (changes tWTR)
WR                                      7 # last data-in to row precharge
CL                                      1 # CAS latency
WL                                      1 # Write latency
nbkgrp                                  1 # number of bank groups
CCDL                                    0 # column to column delay between accesses to different bank groups
RTPL                                    0 # read to precharge delay between accesses to different bank groups
Total number of memory sub partition = 8
addr_dec_mask[CHIP]  = 0000000000000700 	high:11 low:8
addr_dec_mask[BK]    = 000000000001c000 	high:17 low:14
addr_dec_mask[ROW]   = 000000007ffe0000 	high:31 low:17
addr_dec_mask[COL]   = 00000000000038ff 	high:14 low:0
addr_dec_mask[BURST] = 000000000000001f 	high:5 low:0
sub_partition_id_mask = 0000000000000000
GPGPU-Sim uArch: clock freqs: 325000000.000000:650000000.000000:650000000.000000:1000000000.000000
GPGPU-Sim uArch: clock periods: 0.00000000307692307692:0.00000000153846153846:0.00000000153846153846:0.00000000100000000000
*** Initializing Memory Statistics ***
GPGPU-Sim uArch: interconnect node map (shaderID+MemID to icntID)
GPGPU-Sim uArch: Memory nodes ID start from index: 10
GPGPU-Sim uArch:    0   1   2   3
GPGPU-Sim uArch:    4   5   6   7
GPGPU-Sim uArch:    8   9  10  11
GPGPU-Sim uArch:   12  13  14  15
GPGPU-Sim uArch:   16  17
GPGPU-Sim uArch: interconnect node reverse map (icntID to shaderID+MemID)
GPGPU-Sim uArch: Memory nodes start from ID: 10
GPGPU-Sim uArch:    0   1   2   3
GPGPU-Sim uArch:    4   5   6   7
GPGPU-Sim uArch:    8   9  10  11
GPGPU-Sim uArch:   12  13  14  15
GPGPU-Sim uArch:   16  17
GPGPU-Sim uArch: performance model initialization complete.
GPGPU-Sim PTX: __cudaRegisterFatBinary, fat_cubin_handle = 1, filename=aesHost.cu
self exe links to: /home/robin/gpgpu_Mar_1/gpgpu-sim/ispass2009-benchmarks/bin/release/AES
Running md5sum using "md5sum /home/robin/gpgpu_Mar_1/gpgpu-sim/ispass2009-benchmarks/bin/release/AES "
5712f86ba431b739c4da38cbd563d5a2  /home/robin/gpgpu_Mar_1/gpgpu-sim/ispass2009-benchmarks/bin/release/AES
Running cuobjdump using "$CUDA_INSTALL_PATH/bin/cuobjdump -ptx -elf -sass /home/robin/gpgpu_Mar_1/gpgpu-sim/ispass2009-benchmarks/bin/release/AES > _cuobjdump_complete_output_n7axnq"
Parsing file _cuobjdump_complete_output_n7axnq
######### cuobjdump parser ########
## Adding new section ELF
Adding arch: sm_20
Adding identifier: aesHost.cu
## Adding new section PTX
Adding ptx filename: _cuobjdump_1.ptx
Adding arch: sm_20
Adding identifier: aesHost.cu
## Adding new section PTX
Adding ptx filename: _cuobjdump_2.ptx
Adding arch: sm_10
Adding identifier: aesHost.cu
## Adding new section ELF
Adding arch: sm_10
Adding identifier: aesHost.cu
Done parsing!!!
GPGPU-Sim PTX: __cudaRegisterFunction _Z13aesDecrypt256PjS_i : hostFun 0x0x408ea0, fat_cubin_handle = 1
GPGPU-Sim PTX: encountered texture directive texEKey128.
GPGPU-Sim PTX: allocating constant region for "posIdx_E" from 0x100 to 0x120 (global memory space) 1
GPGPU-Sim PTX: allocating constant region for "TBox0" from 0x180 to 0x580 (global memory space) 2
GPGPU-Sim PTX: allocating constant region for "TBox1" from 0x580 to 0x980 (global memory space) 3
GPGPU-Sim PTX: allocating constant region for "TBox2" from 0x980 to 0xd80 (global memory space) 4
GPGPU-Sim PTX: allocating constant region for "TBox3" from 0xd80 to 0x1180 (global memory space) 5
GPGPU-Sim PTX: allocating shared region for "__cuda___cuda_local_var_32277_33_non_const_tBox1Block20" from 0x0 to 0x400 (shared memory space)
GPGPU-Sim PTX: allocating shared region for "__cuda___cuda_local_var_32279_33_non_const_tBox3Block1044" from 0x400 to 0x800 (shared memory space)
GPGPU-Sim PTX: allocating shared region for "__cuda___cuda_local_var_32272_36_non_const_stageBlock12068" from 0x800 to 0xc00 (shared memory space)
GPGPU-Sim PTX: allocating shared region for "__cuda___cuda_local_var_32276_33_non_const_tBox0Block3092" from 0xc00 to 0x1000 (shared memory space)
GPGPU-Sim PTX: allocating shared region for "__cuda___cuda_local_var_32278_33_non_const_tBox2Block4116" from 0x1000 to 0x1400 (shared memory space)
GPGPU-Sim PTX: allocating shared region for "__cuda___cuda_local_var_32273_33_non_const_stageBlock25140" from 0x1400 to 0x1800 (shared memory space)
GPGPU-Sim PTX: instruction assembly for function '_Z13aesEncrypt128PjS_i'...   done.
GPGPU-Sim PTX: finding reconvergence points for '_Z13aesEncrypt128PjS_i'...
GPGPU-Sim PTX: Finding dominators for '_Z13aesEncrypt128PjS_i'...
GPGPU-Sim PTX: Finding immediate dominators for '_Z13aesEncrypt128PjS_i'...
GPGPU-Sim PTX: Finding postdominators for '_Z13aesEncrypt128PjS_i'...
GPGPU-Sim PTX: Finding immediate postdominators for '_Z13aesEncrypt128PjS_i'...
GPGPU-Sim PTX: pre-decoding instructions for '_Z13aesEncrypt128PjS_i'...
GPGPU-Sim PTX: reconvergence points for _Z13aesEncrypt128PjS_i...
GPGPU-Sim PTX: ... end of reconvergence points for _Z13aesEncrypt128PjS_i
GPGPU-Sim PTX: ... done pre-decoding instructions for '_Z13aesEncrypt128PjS_i'.
GPGPU-Sim PTX: encountered texture directive texDKey128.
GPGPU-Sim PTX: allocating constant region for "posIdx_D" from 0x1180 to 0x11a0 (global memory space) 6
GPGPU-Sim PTX: allocating constant region for "TBoxi0" from 0x1200 to 0x1600 (global memory space) 7
GPGPU-Sim PTX: allocating constant region for "TBoxi1" from 0x1600 to 0x1a00 (global memory space) 8
GPGPU-Sim PTX: allocating constant region for "TBoxi2" from 0x1a00 to 0x1e00 (global memory space) 9
GPGPU-Sim PTX: allocating constant region for "TBoxi3" from 0x1e00 to 0x2200 (global memory space) 10
GPGPU-Sim PTX: allocating constant region for "inv_SBox" from 0x2200 to 0x2600 (global memory space) 11
GPGPU-Sim PTX: allocating shared region for "__cuda___cuda_local_var_32633_36_non_const_tBox1Block6188" from 0x0 to 0x400 (shared memory space)
GPGPU-Sim PTX: allocating shared region for "__cuda___cuda_local_var_32635_36_non_const_tBox3Block7212" from 0x400 to 0x800 (shared memory space)
GPGPU-Sim PTX: allocating shared region for "__cuda___cuda_local_var_32630_36_non_const_stageBlock18236" from 0x800 to 0xc00 (shared memory space)
GPGPU-Sim PTX: allocating shared region for "__cuda___cuda_local_var_32632_36_non_const_tBox0Block9260" from 0xc00 to 0x1000 (shared memory space)
GPGPU-Sim PTX: allocating shared region for "__cuda___cuda_local_var_32634_36_non_const_tBox2Block10284" from 0x1000 to 0x1400 (shared memory space)
GPGPU-Sim PTX: allocating shared region for "__cuda___cuda_local_var_32636_36_non_const_invSBoxBlock11308" from 0x1400 to 0x1800 (shared memory space)
GPGPU-Sim PTX: allocating shared region for "__cuda___cuda_local_var_32631_33_non_const_stageBlock212332" from 0x1800 to 0x1c00 (shared memory space)
GPGPU-Sim PTX: instruction assembly for function '_Z13aesDecrypt128PjS_i'...   done.
GPGPU-Sim PTX: finding reconvergence points for '_Z13aesDecrypt128PjS_i'...
GPGPU-Sim PTX: Finding dominators for '_Z13aesDecrypt128PjS_i'...
GPGPU-Sim PTX: Finding immediate dominators for '_Z13aesDecrypt128PjS_i'...
GPGPU-Sim PTX: Finding postdominators for '_Z13aesDecrypt128PjS_i'...
GPGPU-Sim PTX: Finding immediate postdominators for '_Z13aesDecrypt128PjS_i'...
GPGPU-Sim PTX: pre-decoding instructions for '_Z13aesDecrypt128PjS_i'...
GPGPU-Sim PTX: reconvergence points for _Z13aesDecrypt128PjS_i...
GPGPU-Sim PTX: ... end of reconvergence points for _Z13aesDecrypt128PjS_i
GPGPU-Sim PTX: ... done pre-decoding instructions for '_Z13aesDecrypt128PjS_i'.
GPGPU-Sim PTX: encountered texture directive texEKey.
GPGPU-Sim PTX: allocating shared region for "__cuda___cuda_local_var_32988_33_non_const_tBox0Block13380" from 0x0 to 0x400 (shared memory space)
GPGPU-Sim PTX: allocating shared region for "__cuda___cuda_local_var_32990_33_non_const_tBox2Block14404" from 0x400 to 0x800 (shared memory space)
GPGPU-Sim PTX: allocating shared region for "__cuda___cuda_local_var_32989_33_non_const_tBox1Block15428" from 0x800 to 0xc00 (shared memory space)
GPGPU-Sim PTX: allocating shared region for "__cuda___cuda_local_var_32991_33_non_const_tBox3Block16452" from 0xc00 to 0x1000 (shared memory space)
GPGPU-Sim PTX: allocating shared region for "__cuda___cuda_local_var_32984_36_non_const_stageBlock117476" from 0x1000 to 0x1400 (shared memory space)
GPGPU-Sim PTX: allocating shared region for "__cuda___cuda_local_var_32985_33_non_const_stageBlock218500" from 0x1400 to 0x1800 (shared memory space)
GPGPU-Sim PTX: instruction assembly for function '_Z13aesEncrypt256PjS_i'...   done.
GPGPU-Sim PTX: finding reconvergence points for '_Z13aesEncrypt256PjS_i'...
GPGPU-Sim PTX: Finding dominators for '_Z13aesEncrypt256PjS_i'...
GPGPU-Sim PTX: Finding immediate dominators for '_Z13aesEncrypt256PjS_i'...
GPGPU-Sim PTX: Finding postdominators for '_Z13aesEncrypt256PjS_i'...
GPGPU-Sim PTX: Finding immediate postdominators for '_Z13aesEncrypt256PjS_i'...
GPGPU-Sim PTX: pre-decoding instructions for '_Z13aesEncrypt256PjS_i'...
GPGPU-Sim PTX: reconvergence points for _Z13aesEncrypt256PjS_i...
GPGPU-Sim PTX: ... end of reconvergence points for _Z13aesEncrypt256PjS_i
GPGPU-Sim PTX: ... done pre-decoding instructions for '_Z13aesEncrypt256PjS_i'.
GPGPU-Sim PTX: encountered texture directive texDKey.
GPGPU-Sim PTX: allocating shared region for "__cuda___cuda_local_var_33435_36_non_const_tBox0Block19548" from 0x0 to 0x400 (shared memory space)
GPGPU-Sim PTX: allocating shared region for "__cuda___cuda_local_var_33437_36_non_const_tBox2Block20572" from 0x400 to 0x800 (shared memory space)
GPGPU-Sim PTX: allocating shared region for "__cuda___cuda_local_var_33439_36_non_const_invSBoxBlock21596" from 0x800 to 0xc00 (shared memory space)
GPGPU-Sim PTX: allocating shared region for "__cuda___cuda_local_var_33436_36_non_const_tBox1Block22620" from 0xc00 to 0x1000 (shared memory space)
GPGPU-Sim PTX: allocating shared region for "__cuda___cuda_local_var_33438_36_non_const_tBox3Block23644" from 0x1000 to 0x1400 (shared memory space)
GPGPU-Sim PTX: allocating shared region for "__cuda___cuda_local_var_33433_36_non_const_stageBlock124668" from 0x1400 to 0x1800 (shared memory space)
GPGPU-Sim PTX: allocating shared region for "__cuda___cuda_local_var_33434_33_non_const_stageBlock225692" from 0x1800 to 0x1c00 (shared memory space)
GPGPU-Sim PTX: instruction assembly for function '_Z13aesDecrypt256PjS_i'...   done.
GPGPU-Sim PTX: finding reconvergence points for '_Z13aesDecrypt256PjS_i'...
GPGPU-Sim PTX: Finding dominators for '_Z13aesDecrypt256PjS_i'...
GPGPU-Sim PTX: Finding immediate dominators for '_Z13aesDecrypt256PjS_i'...
GPGPU-Sim PTX: Finding postdominators for '_Z13aesDecrypt256PjS_i'...
GPGPU-Sim PTX: Finding immediate postdominators for '_Z13aesDecrypt256PjS_i'...
GPGPU-Sim PTX: pre-decoding instructions for '_Z13aesDecrypt256PjS_i'...
GPGPU-Sim PTX: reconvergence points for _Z13aesDecrypt256PjS_i...
GPGPU-Sim PTX: ... end of reconvergence points for _Z13aesDecrypt256PjS_i
GPGPU-Sim PTX: ... done pre-decoding instructions for '_Z13aesDecrypt256PjS_i'.
GPGPU-Sim PTX: finished parsing EMBEDDED .ptx file _1.ptx
Adding _cuobjdump_2.ptx with cubin handle 1
GPGPU-Sim PTX: extracting embedded .ptx to temporary file "_ptx_zA7ysA"
Running: cat _ptx_zA7ysA | sed 's/.version 1.5/.version 1.4/' | sed 's/, texmode_independent//' | sed 's/\(\.extern \.const\[1\] .b8 \w\+\)\[\]/\1\[1\]/' | sed 's/const\[.\]/const\[0\]/g' > _ptx2_eOjGxK
GPGPU-Sim PTX: generating ptxinfo using "$CUDA_INSTALL_PATH/bin/ptxas --gpu-name=sm_20 -v _ptx2_eOjGxK --output-file  /dev/null 2> _ptx_zA7ysAinfo"
GPGPU-Sim PTX: Kernel '_Z13aesDecrypt256PjS_i' : regs=15, lmem=0, smem=7168, cmem=9332
GPGPU-Sim PTX: Kernel '_Z13aesEncrypt256PjS_i' : regs=15, lmem=0, smem=6144, cmem=9332
GPGPU-Sim PTX: Kernel '_Z13aesDecrypt128PjS_i' : regs=15, lmem=0, smem=7168, cmem=9332
GPGPU-Sim PTX: Kernel '_Z13aesEncrypt128PjS_i' : regs=15, lmem=0, smem=6144, cmem=9332
GPGPU-Sim PTX: removing ptxinfo using "rm -f _ptx_zA7ysA _ptx2_eOjGxK _ptx_zA7ysAinfo"
GPGPU-Sim PTX: loading globals with explicit initializers... 
GPGPU-Sim PTX: finished loading globals (0 bytes total).
GPGPU-Sim PTX: loading constants with explicit initializers...  done.
GPGPU-Sim PTX: __cudaRegisterFunction _Z13aesEncrypt256PjS_i : hostFun 0x0x408f30, fat_cubin_handle = 1
GPGPU-Sim PTX: __cudaRegisterFunction _Z13aesDecrypt128PjS_i : hostFun 0x0x408fc0, fat_cubin_handle = 1
GPGPU-Sim PTX: __cudaRegisterFunction _Z13aesEncrypt128PjS_i : hostFun 0x0x409050, fat_cubin_handle = 1
GPGPU-Sim PTX: __cudaRegisterVar: hostVar = 0x662380; deviceAddress = posIdx_E; deviceName = posIdx_E
GPGPU-Sim PTX: __cudaRegisterVar: Registering const memory space of 32 bytes
GPGPU-Sim PTX registering constant posIdx_E (32 bytes) to name mapping
GPGPU-Sim PTX: __cudaRegisterVar: hostVar = 0x6623a0; deviceAddress = TBox0; deviceName = TBox0
GPGPU-Sim PTX: __cudaRegisterVar: Registering const memory space of 1024 bytes
GPGPU-Sim PTX registering constant TBox0 (1024 bytes) to name mapping
GPGPU-Sim PTX: __cudaRegisterVar: hostVar = 0x6627a0; deviceAddress = TBox1; deviceName = TBox1
GPGPU-Sim PTX: __cudaRegisterVar: Registering const memory space of 1024 bytes
GPGPU-Sim PTX registering constant TBox1 (1024 bytes) to name mapping
GPGPU-Sim PTX: __cudaRegisterVar: hostVar = 0x662ba0; deviceAddress = TBox2; deviceName = TBox2
GPGPU-Sim PTX: __cudaRegisterVar: Registering const memory space of 1024 bytes
GPGPU-Sim PTX registering constant TBox2 (1024 bytes) to name mapping
GPGPU-Sim PTX: __cudaRegisterVar: hostVar = 0x662fa0; deviceAddress = TBox3; deviceName = TBox3
GPGPU-Sim PTX: __cudaRegisterVar: Registering const memory space of 1024 bytes
GPGPU-Sim PTX registering constant TBox3 (1024 bytes) to name mapping
GPGPU-Sim PTX: __cudaRegisterVar: hostVar = 0x6633a0; deviceAddress = posIdx_D; deviceName = posIdx_D
GPGPU-Sim PTX: __cudaRegisterVar: Registering const memory space of 32 bytes
GPGPU-Sim PTX registering constant posIdx_D (32 bytes) to name mapping
GPGPU-Sim PTX: __cudaRegisterVar: hostVar = 0x6633c0; deviceAddress = TBoxi0; deviceName = TBoxi0
GPGPU-Sim PTX: __cudaRegisterVar: Registering const memory space of 1024 bytes
GPGPU-Sim PTX registering constant TBoxi0 (1024 bytes) to name mapping
GPGPU-Sim PTX: __cudaRegisterVar: hostVar = 0x6637c0; deviceAddress = TBoxi1; deviceName = TBoxi1
GPGPU-Sim PTX: __cudaRegisterVar: Registering const memory space of 1024 bytes
GPGPU-Sim PTX registering constant TBoxi1 (1024 bytes) to name mapping
GPGPU-Sim PTX: __cudaRegisterVar: hostVar = 0x663bc0; deviceAddress = TBoxi2; deviceName = TBoxi2
GPGPU-Sim PTX: __cudaRegisterVar: Registering const memory space of 1024 bytes
GPGPU-Sim PTX registering constant TBoxi2 (1024 bytes) to name mapping
GPGPU-Sim PTX: __cudaRegisterVar: hostVar = 0x663fc0; deviceAddress = TBoxi3; deviceName = TBoxi3
GPGPU-Sim PTX: __cudaRegisterVar: Registering const memory space of 1024 bytes
GPGPU-Sim PTX registering constant TBoxi3 (1024 bytes) to name mapping
GPGPU-Sim PTX: __cudaRegisterVar: hostVar = 0x6643c0; deviceAddress = inv_SBox; deviceName = inv_SBox
GPGPU-Sim PTX: __cudaRegisterVar: Registering const memory space of 1024 bytes
GPGPU-Sim PTX registering constant inv_SBox (1024 bytes) to name mapping
GPGPU-Sim PTX: in __cudaRegisterTexture:
GPGPU-Sim PTX:   int dim = 1
GPGPU-Sim PTX:   int norm = 0
GPGPU-Sim PTX:   int ext = 0
GPGPU-Sim PTX:   Execution warning: Not finished implementing "void __cudaRegisterTexture(void**, const textureReference*, const void**, const char*, int, int, int)"
GPGPU-Sim PTX: in __cudaRegisterTexture:
GPGPU-Sim PTX:   int dim = 1
GPGPU-Sim PTX:   int norm = 0
GPGPU-Sim PTX:   int ext = 0
GPGPU-Sim PTX:   Execution warning: Not finished implementing "void __cudaRegisterTexture(void**, const textureReference*, const void**, const char*, int, int, int)"
GPGPU-Sim PTX: in __cudaRegisterTexture:
GPGPU-Sim PTX:   int dim = 1
GPGPU-Sim PTX:   int norm = 0
GPGPU-Sim PTX:   int ext = 0
GPGPU-Sim PTX:   Execution warning: Not finished implementing "void __cudaRegisterTexture(void**, const textureReference*, const void**, const char*, int, int, int)"
GPGPU-Sim PTX: in __cudaRegisterTexture:
GPGPU-Sim PTX:   int dim = 1
GPGPU-Sim PTX:   int norm = 0
GPGPU-Sim PTX:   int ext = 0
GPGPU-Sim PTX:   Execution warning: Not finished implementing "void __cudaRegisterTexture(void**, const textureReference*, const void**, const char*, int, int, int)"

###############################################################

AES - CUDA by Svetlin Manavski)

AES 128 is running....

Input file size: 262198 Bytes

Key: 0123456789abcdef
GPGPU-Sim PTX: in cudaBindTexture: sizeof(struct textureReference) = 104
GPGPU-Sim PTX:   size = 176
GPGPU-Sim PTX:   texref = 0x662180, array = 0x1cafac0
GPGPU-Sim PTX:   devPtr32 = 80040400
GPGPU-Sim PTX:   Name corresponding to textureReference: texEKey128
GPGPU-Sim PTX:   ChannelFormatDesc: x=32, y=0, z=0, w=0
GPGPU-Sim PTX:   Texture Normalized? = 0
GPGPU-Sim PTX:   texel size = 4
GPGPU-Sim PTX:   texture cache linesize = 128
GPGPU-Sim PTX:   Tx = 8; Ty = 4, Tx_numbits = 3, Ty_numbits = 2
GPGPU-Sim PTX:   Texel size = 4 bytes; texel_size_numbits = 2
GPGPU-Sim PTX:   Binding texture to array starting at devPtr32 = 0x80040400
GPGPU-Sim PTX:   Texel size = 4 bytes
GPGPU-Sim PTX: devPtr = 0xffffffff80040400
GPGPU-Sim PTX: in cudaBindTexture: sizeof(struct textureReference) = 104
GPGPU-Sim PTX:   size = 176
GPGPU-Sim PTX:   texref = 0x662200, array = 0x1cafb80
GPGPU-Sim PTX:   devPtr32 = 80040400
GPGPU-Sim PTX:   Name corresponding to textureReference: texDKey128
GPGPU-Sim PTX:   ChannelFormatDesc: x=32, y=0, z=0, w=0
GPGPU-Sim PTX:   Texture Normalized? = 0
GPGPU-Sim PTX:   texel size = 4
GPGPU-Sim PTX:   texture cache linesize = 128
GPGPU-Sim PTX:   Tx = 8; Ty = 4, Tx_numbits = 3, Ty_numbits = 2
GPGPU-Sim PTX:   Texel size = 4 bytes; texel_size_numbits = 2
GPGPU-Sim PTX:   Binding texture to array starting at devPtr32 = 0x80040400
GPGPU-Sim PTX:   Texel size = 4 bytes
GPGPU-Sim PTX: devPtr = 0xffffffff80040400
GPGPU-Sim PTX: in cudaBindTexture: sizeof(struct textureReference) = 104
GPGPU-Sim PTX:   size = 176
GPGPU-Sim PTX:   texref = 0x662280, array = 0x1cafc40
GPGPU-Sim PTX:   devPtr32 = 80040400
GPGPU-Sim PTX:   Name corresponding to textureReference: texEKey
GPGPU-Sim PTX:   ChannelFormatDesc: x=32, y=0, z=0, w=0
GPGPU-Sim PTX:   Texture Normalized? = 0
GPGPU-Sim PTX:   texel size = 4
GPGPU-Sim PTX:   texture cache linesize = 128
GPGPU-Sim PTX:   Tx = 8; Ty = 4, Tx_numbits = 3, Ty_numbits = 2
GPGPU-Sim PTX:   Texel size = 4 bytes; texel_size_numbits = 2
GPGPU-Sim PTX:   Binding texture to array starting at devPtr32 = 0x80040400
GPGPU-Sim PTX:   Texel size = 4 bytes
GPGPU-Sim PTX: devPtr = 0xffffffff80040400
GPGPU-Sim PTX: in cudaBindTexture: sizeof(struct textureReference) = 104
GPGPU-Sim PTX:   size = 176
GPGPU-Sim PTX:   texref = 0x662300, array = 0x1cafd00
GPGPU-Sim PTX:   devPtr32 = 80040400
GPGPU-Sim PTX:   Name corresponding to textureReference: texDKey
GPGPU-Sim PTX:   ChannelFormatDesc: x=32, y=0, z=0, w=0
GPGPU-Sim PTX:   Texture Normalized? = 0
GPGPU-Sim PTX:   texel size = 4
GPGPU-Sim PTX:   texture cache linesize = 128
GPGPU-Sim PTX:   Tx = 8; Ty = 4, Tx_numbits = 3, Ty_numbits = 2
GPGPU-Sim PTX:   Texel size = 4 bytes; texel_size_numbits = 2
GPGPU-Sim PTX:   Binding texture to array starting at devPtr32 = 0x80040400
GPGPU-Sim PTX:   Texel size = 4 bytes
GPGPU-Sim PTX: devPtr = 0xffffffff80040400

ENCRYPTION.....


GPGPU-Sim PTX: cudaLaunch for 0x0x409050 (mode=performance simulation) on stream 0
GPGPU-Sim PTX: pushing kernel '_Z13aesEncrypt128PjS_i' to stream 0, gridDim= (257,1,1) blockDim = (256,1,1) 
kernel '_Z13aesEncrypt128PjS_i' transfer to GPU hardware scheduler
GPGPU-Sim uArch: Shader 3 bind to kernel 1 '_Z13aesEncrypt128PjS_i'
GPGPU-Sim uArch: CTA/core = 4, limited by: threads
GPGPU-Sim uArch: core:  3, cta: 0 initialized @(1,0)
GPGPU-Sim uArch: Shader 6 bind to kernel 1 '_Z13aesEncrypt128PjS_i'
GPGPU-Sim uArch: core:  6, cta: 0 initialized @(1,0)
GPGPU-Sim uArch: Shader 9 bind to kernel 1 '_Z13aesEncrypt128PjS_i'
GPGPU-Sim uArch: core:  9, cta: 0 initialized @(1,0)
GPGPU-Sim uArch: Shader 12 bind to kernel 1 '_Z13aesEncrypt128PjS_i'
GPGPU-Sim uArch: core: 12, cta: 0 initialized @(1,0)
GPGPU-Sim uArch: Shader 15 bind to kernel 1 '_Z13aesEncrypt128PjS_i'
GPGPU-Sim uArch: core: 15, cta: 0 initialized @(1,0)
GPGPU-Sim uArch: Shader 18 bind to kernel 1 '_Z13aesEncrypt128PjS_i'
GPGPU-Sim uArch: core: 18, cta: 0 initialized @(1,0)
GPGPU-Sim uArch: Shader 21 bind to kernel 1 '_Z13aesEncrypt128PjS_i'
GPGPU-Sim uArch: core: 21, cta: 0 initialized @(1,0)
GPGPU-Sim uArch: Shader 24 bind to kernel 1 '_Z13aesEncrypt128PjS_i'
GPGPU-Sim uArch: core: 24, cta: 0 initialized @(1,0)
GPGPU-Sim uArch: Shader 27 bind to kernel 1 '_Z13aesEncrypt128PjS_i'
GPGPU-Sim uArch: core: 27, cta: 0 initialized @(1,0)
GPGPU-Sim uArch: Shader 0 bind to kernel 1 '_Z13aesEncrypt128PjS_i'
GPGPU-Sim uArch: core:  0, cta: 0 initialized @(1,0)
GPGPU-Sim uArch: Shader 4 bind to kernel 1 '_Z13aesEncrypt128PjS_i'
GPGPU-Sim uArch: core:  4, cta: 0 initialized @(2,0)
GPGPU-Sim uArch: Shader 7 bind to kernel 1 '_Z13aesEncrypt128PjS_i'
GPGPU-Sim uArch: core:  7, cta: 0 initialized @(2,0)
GPGPU-Sim uArch: Shader 10 bind to kernel 1 '_Z13aesEncrypt128PjS_i'
GPGPU-Sim uArch: core: 10, cta: 0 initialized @(2,0)
GPGPU-Sim uArch: Shader 13 bind to kernel 1 '_Z13aesEncrypt128PjS_i'
GPGPU-Sim uArch: core: 13, cta: 0 initialized @(2,0)
GPGPU-Sim uArch: Shader 16 bind to kernel 1 '_Z13aesEncrypt128PjS_i'
GPGPU-Sim uArch: core: 16, cta: 0 initialized @(2,0)
GPGPU-Sim uArch: Shader 19 bind to kernel 1 '_Z13aesEncrypt128PjS_i'
GPGPU-Sim uArch: core: 19, cta: 0 initialized @(2,0)
GPGPU-Sim uArch: Shader 22 bind to kernel 1 '_Z13aesEncrypt128PjS_i'
GPGPU-Sim uArch: core: 22, cta: 0 initialized @(2,0)
GPGPU-Sim uArch: Shader 25 bind to kernel 1 '_Z13aesEncrypt128PjS_i'
GPGPU-Sim uArch: core: 25, cta: 0 initialized @(2,0)
GPGPU-Sim uArch: Shader 28 bind to kernel 1 '_Z13aesEncrypt128PjS_i'
GPGPU-Sim uArch: core: 28, cta: 0 initialized @(2,0)
GPGPU-Sim uArch: Shader 1 bind to kernel 1 '_Z13aesEncrypt128PjS_i'
GPGPU-Sim uArch: core:  1, cta: 0 initialized @(2,0)
GPGPU-Sim uArch: Shader 5 bind to kernel 1 '_Z13aesEncrypt128PjS_i'
GPGPU-Sim uArch: core:  5, cta: 0 initialized @(3,0)
GPGPU-Sim uArch: Shader 8 bind to kernel 1 '_Z13aesEncrypt128PjS_i'
GPGPU-Sim uArch: core:  8, cta: 0 initialized @(3,0)
GPGPU-Sim uArch: Shader 11 bind to kernel 1 '_Z13aesEncrypt128PjS_i'
GPGPU-Sim uArch: core: 11, cta: 0 initialized @(3,0)
GPGPU-Sim uArch: Shader 14 bind to kernel 1 '_Z13aesEncrypt128PjS_i'
GPGPU-Sim uArch: core: 14, cta: 0 initialized @(3,0)
GPGPU-Sim uArch: Shader 17 bind to kernel 1 '_Z13aesEncrypt128PjS_i'
GPGPU-Sim uArch: core: 17, cta: 0 initialized @(3,0)
GPGPU-Sim uArch: Shader 20 bind to kernel 1 '_Z13aesEncrypt128PjS_i'
GPGPU-Sim uArch: core: 20, cta: 0 initialized @(3,0)
GPGPU-Sim uArch: Shader 23 bind to kernel 1 '_Z13aesEncrypt128PjS_i'
GPGPU-Sim uArch: core: 23, cta: 0 initialized @(3,0)
GPGPU-Sim uArch: Shader 26 bind to kernel 1 '_Z13aesEncrypt128PjS_i'
GPGPU-Sim uArch: core: 26, cta: 0 initialized @(3,0)
GPGPU-Sim uArch: Shader 29 bind to kernel 1 '_Z13aesEncrypt128PjS_i'
GPGPU-Sim uArch: core: 29, cta: 0 initialized @(3,0)
GPGPU-Sim uArch: Shader 2 bind to kernel 1 '_Z13aesEncrypt128PjS_i'
GPGPU-Sim uArch: core:  2, cta: 0 initialized @(3,0)
GPGPU-Sim uArch: core:  3, cta: 1 initialized @(4,0)
GPGPU-Sim uArch: core:  6, cta: 1 initialized @(4,0)
GPGPU-Sim uArch: core:  9, cta: 1 initialized @(4,0)
GPGPU-Sim uArch: core: 12, cta: 1 initialized @(4,0)
GPGPU-Sim uArch: core: 15, cta: 1 initialized @(4,0)
GPGPU-Sim uArch: core: 18, cta: 1 initialized @(4,0)
GPGPU-Sim uArch: core: 21, cta: 1 initialized @(4,0)
GPGPU-Sim uArch: core: 24, cta: 1 initialized @(4,0)
GPGPU-Sim uArch: core: 27, cta: 1 initialized @(4,0)
GPGPU-Sim uArch: core:  0, cta: 1 initialized @(4,0)
GPGPU-Sim uArch: core:  4, cta: 1 initialized @(5,0)
GPGPU-Sim uArch: core:  7, cta: 1 initialized @(5,0)
GPGPU-Sim uArch: core: 10, cta: 1 initialized @(5,0)
GPGPU-Sim uArch: core: 13, cta: 1 initialized @(5,0)
GPGPU-Sim uArch: core: 16, cta: 1 initialized @(5,0)
GPGPU-Sim uArch: core: 19, cta: 1 initialized @(5,0)
GPGPU-Sim uArch: core: 22, cta: 1 initialized @(5,0)
GPGPU-Sim uArch: core: 25, cta: 1 initialized @(5,0)
GPGPU-Sim uArch: core: 28, cta: 1 initialized @(5,0)
GPGPU-Sim uArch: core:  1, cta: 1 initialized @(5,0)
GPGPU-Sim uArch: core:  5, cta: 1 initialized @(6,0)
GPGPU-Sim uArch: core:  8, cta: 1 initialized @(6,0)
GPGPU-Sim uArch: core: 11, cta: 1 initialized @(6,0)
GPGPU-Sim uArch: core: 14, cta: 1 initialized @(6,0)
GPGPU-Sim uArch: core: 17, cta: 1 initialized @(6,0)
GPGPU-Sim uArch: core: 20, cta: 1 initialized @(6,0)
GPGPU-Sim uArch: core: 23, cta: 1 initialized @(6,0)
GPGPU-Sim uArch: core: 26, cta: 1 initialized @(6,0)
GPGPU-Sim uArch: core: 29, cta: 1 initialized @(6,0)
GPGPU-Sim uArch: core:  2, cta: 1 initialized @(6,0)
GPGPU-Sim uArch: core:  3, cta: 2 initialized @(7,0)
GPGPU-Sim uArch: core:  6, cta: 2 initialized @(7,0)
GPGPU-Sim uArch: core:  9, cta: 2 initialized @(7,0)
GPGPU-Sim uArch: core: 12, cta: 2 initialized @(7,0)
GPGPU-Sim uArch: core: 15, cta: 2 initialized @(7,0)
GPGPU-Sim uArch: core: 18, cta: 2 initialized @(7,0)
GPGPU-Sim uArch: core: 21, cta: 2 initialized @(7,0)
GPGPU-Sim uArch: core: 24, cta: 2 initialized @(7,0)
GPGPU-Sim uArch: core: 27, cta: 2 initialized @(7,0)
GPGPU-Sim uArch: core:  0, cta: 2 initialized @(7,0)
GPGPU-Sim uArch: core:  4, cta: 2 initialized @(8,0)
GPGPU-Sim uArch: core:  7, cta: 2 initialized @(8,0)
GPGPU-Sim uArch: core: 10, cta: 2 initialized @(8,0)
GPGPU-Sim uArch: core: 13, cta: 2 initialized @(8,0)
GPGPU-Sim uArch: core: 16, cta: 2 initialized @(8,0)
GPGPU-Sim uArch: core: 19, cta: 2 initialized @(8,0)
GPGPU-Sim uArch: core: 22, cta: 2 initialized @(8,0)
GPGPU-Sim uArch: core: 25, cta: 2 initialized @(8,0)
GPGPU-Sim uArch: core: 28, cta: 2 initialized @(8,0)
GPGPU-Sim uArch: core:  1, cta: 2 initialized @(8,0)
GPGPU-Sim uArch: core:  5, cta: 2 initialized @(9,0)
GPGPU-Sim uArch: core:  8, cta: 2 initialized @(9,0)
GPGPU-Sim uArch: core: 11, cta: 2 initialized @(9,0)
GPGPU-Sim uArch: core: 14, cta: 2 initialized @(9,0)
GPGPU-Sim uArch: core: 17, cta: 2 initialized @(9,0)
GPGPU-Sim uArch: core: 20, cta: 2 initialized @(9,0)
GPGPU-Sim uArch: core: 23, cta: 2 initialized @(9,0)
GPGPU-Sim uArch: core: 26, cta: 2 initialized @(9,0)
GPGPU-Sim uArch: core: 29, cta: 2 initialized @(9,0)
GPGPU-Sim uArch: core:  2, cta: 2 initialized @(9,0)
GPGPU-Sim uArch: core:  3, cta: 3 initialized @(10,0)
GPGPU-Sim uArch: core:  6, cta: 3 initialized @(10,0)
GPGPU-Sim uArch: core:  9, cta: 3 initialized @(10,0)
GPGPU-Sim uArch: core: 12, cta: 3 initialized @(10,0)
GPGPU-Sim uArch: core: 15, cta: 3 initialized @(10,0)
GPGPU-Sim uArch: core: 18, cta: 3 initialized @(10,0)
GPGPU-Sim uArch: core: 21, cta: 3 initialized @(10,0)
GPGPU-Sim uArch: core: 24, cta: 3 initialized @(10,0)
GPGPU-Sim uArch: core: 27, cta: 3 initialized @(10,0)
GPGPU-Sim uArch: core:  0, cta: 3 initialized @(10,0)
GPGPU-Sim uArch: core:  4, cta: 3 initialized @(11,0)
GPGPU-Sim uArch: core:  7, cta: 3 initialized @(11,0)
GPGPU-Sim uArch: core: 10, cta: 3 initialized @(11,0)
GPGPU-Sim uArch: core: 13, cta: 3 initialized @(11,0)
GPGPU-Sim uArch: core: 16, cta: 3 initialized @(11,0)
GPGPU-Sim uArch: core: 19, cta: 3 initialized @(11,0)
GPGPU-Sim uArch: core: 22, cta: 3 initialized @(11,0)
GPGPU-Sim uArch: core: 25, cta: 3 initialized @(11,0)
GPGPU-Sim uArch: core: 28, cta: 3 initialized @(11,0)
GPGPU-Sim uArch: core:  1, cta: 3 initialized @(11,0)
GPGPU-Sim uArch: core:  5, cta: 3 initialized @(12,0)
GPGPU-Sim uArch: core:  8, cta: 3 initialized @(12,0)
GPGPU-Sim uArch: core: 11, cta: 3 initialized @(12,0)
GPGPU-Sim uArch: core: 14, cta: 3 initialized @(12,0)
GPGPU-Sim uArch: core: 17, cta: 3 initialized @(12,0)
GPGPU-Sim uArch: core: 20, cta: 3 initialized @(12,0)
GPGPU-Sim uArch: core: 23, cta: 3 initialized @(12,0)
GPGPU-Sim uArch: core: 26, cta: 3 initialized @(12,0)
GPGPU-Sim uArch: core: 29, cta: 3 initialized @(12,0)
GPGPU-Sim uArch: core:  2, cta: 3 initialized @(12,0)
GPGPU-Sim PTX: 100000 instructions simulated : ctaid=(46,0,0) tid=(31,0,0)
GPGPU-Sim PTX: 200000 instructions simulated : ctaid=(73,0,0) tid=(63,0,0)
GPGPU-Sim PTX: 300000 instructions simulated : ctaid=(51,0,0) tid=(159,0,0)
GPGPU-Sim uArch: cycles simulated: 500  inst.: 312160 (ipc=624.3) sim_rate=156080 (inst/sec) elapsed = 0:0:00:02 / Sat Mar  8 16:00:30 2014
GPGPU-Sim PTX: 400000 instructions simulated : ctaid=(43,0,0) tid=(191,0,0)
GPGPU-Sim PTX: 500000 instructions simulated : ctaid=(85,0,0) tid=(255,0,0)
GPGPU-Sim uArch: cycles simulated: 1000  inst.: 530272 (ipc=530.3) sim_rate=176757 (inst/sec) elapsed = 0:0:00:03 / Sat Mar  8 16:00:31 2014
GPGPU-Sim PTX: 600000 instructions simulated : ctaid=(7,0,0) tid=(31,0,0)
GPGPU-Sim uArch: cycles simulated: 2000  inst.: 602112 (ipc=301.1) sim_rate=150528 (inst/sec) elapsed = 0:0:00:04 / Sat Mar  8 16:00:32 2014
GPGPU-Sim PTX: 700000 instructions simulated : ctaid=(39,0,0) tid=(31,0,0)
GPGPU-Sim PTX: 800000 instructions simulated : ctaid=(36,0,0) tid=(255,0,0)
GPGPU-Sim uArch: cycles simulated: 3000  inst.: 860928 (ipc=287.0) sim_rate=172185 (inst/sec) elapsed = 0:0:00:05 / Sat Mar  8 16:00:33 2014
GPGPU-Sim PTX: 900000 instructions simulated : ctaid=(60,0,0) tid=(223,0,0)
GPGPU-Sim PTX: 1000000 instructions simulated : ctaid=(87,0,0) tid=(159,0,0)
GPGPU-Sim PTX: 1100000 instructions simulated : ctaid=(112,0,0) tid=(191,0,0)
GPGPU-Sim PTX: 1200000 instructions simulated : ctaid=(26,0,0) tid=(159,0,0)
GPGPU-Sim PTX: 1300000 instructions simulated : ctaid=(25,0,0) tid=(63,0,0)
GPGPU-Sim uArch: cycles simulated: 3500  inst.: 1379616 (ipc=394.2) sim_rate=229936 (inst/sec) elapsed = 0:0:00:06 / Sat Mar  8 16:00:34 2014
GPGPU-Sim PTX: 1400000 instructions simulated : ctaid=(44,0,0) tid=(31,0,0)
GPGPU-Sim PTX: 1500000 instructions simulated : ctaid=(55,0,0) tid=(63,0,0)
GPGPU-Sim PTX: 1600000 instructions simulated : ctaid=(2,0,0) tid=(95,0,0)
GPGPU-Sim PTX: 1700000 instructions simulated : ctaid=(66,0,0) tid=(223,0,0)
GPGPU-Sim PTX: 1800000 instructions simulated : ctaid=(28,0,0) tid=(31,0,0)
GPGPU-Sim uArch: cycles simulated: 4000  inst.: 1872800 (ipc=468.2) sim_rate=267542 (inst/sec) elapsed = 0:0:00:07 / Sat Mar  8 16:00:35 2014
GPGPU-Sim PTX: 1900000 instructions simulated : ctaid=(82,0,0) tid=(127,0,0)
GPGPU-Sim PTX: 2000000 instructions simulated : ctaid=(1,0,0) tid=(223,0,0)
GPGPU-Sim PTX: 2100000 instructions simulated : ctaid=(4,0,0) tid=(159,0,0)
GPGPU-Sim PTX: 2200000 instructions simulated : ctaid=(43,0,0) tid=(223,0,0)
GPGPU-Sim PTX: 2300000 instructions simulated : ctaid=(43,0,0) tid=(95,0,0)
GPGPU-Sim uArch: cycles simulated: 4500  inst.: 2365472 (ipc=525.7) sim_rate=295684 (inst/sec) elapsed = 0:0:00:08 / Sat Mar  8 16:00:36 2014
GPGPU-Sim PTX: 2400000 instructions simulated : ctaid=(25,0,0) tid=(31,0,0)
GPGPU-Sim PTX: 2500000 instructions simulated : ctaid=(32,0,0) tid=(223,0,0)
GPGPU-Sim PTX: 2600000 instructions simulated : ctaid=(68,0,0) tid=(127,0,0)
GPGPU-Sim PTX: 2700000 instructions simulated : ctaid=(84,0,0) tid=(191,0,0)
GPGPU-Sim PTX: 2800000 instructions simulated : ctaid=(5,0,0) tid=(95,0,0)
GPGPU-Sim uArch: cycles simulated: 5000  inst.: 2882976 (ipc=576.6) sim_rate=320330 (inst/sec) elapsed = 0:0:00:09 / Sat Mar  8 16:00:37 2014
GPGPU-Sim PTX: 2900000 instructions simulated : ctaid=(7,0,0) tid=(159,0,0)
GPGPU-Sim PTX: 3000000 instructions simulated : ctaid=(42,0,0) tid=(159,0,0)
GPGPU-Sim PTX: 3100000 instructions simulated : ctaid=(5,0,0) tid=(159,0,0)
GPGPU-Sim PTX: 3200000 instructions simulated : ctaid=(0,0,0) tid=(31,0,0)
GPGPU-Sim PTX: 3300000 instructions simulated : ctaid=(15,0,0) tid=(95,0,0)
GPGPU-Sim PTX: 3400000 instructions simulated : ctaid=(56,0,0) tid=(223,0,0)
GPGPU-Sim uArch: cycles simulated: 5500  inst.: 3402464 (ipc=618.6) sim_rate=340246 (inst/sec) elapsed = 0:0:00:10 / Sat Mar  8 16:00:38 2014
GPGPU-Sim PTX: 3500000 instructions simulated : ctaid=(81,0,0) tid=(95,0,0)
GPGPU-Sim PTX: 3600000 instructions simulated : ctaid=(8,0,0) tid=(95,0,0)
GPGPU-Sim PTX: 3700000 instructions simulated : ctaid=(22,0,0) tid=(127,0,0)
GPGPU-Sim PTX: 3800000 instructions simulated : ctaid=(47,0,0) tid=(63,0,0)
GPGPU-Sim PTX: 3900000 instructions simulated : ctaid=(20,0,0) tid=(159,0,0)
GPGPU-Sim uArch: cycles simulated: 6000  inst.: 3902016 (ipc=650.3) sim_rate=354728 (inst/sec) elapsed = 0:0:00:11 / Sat Mar  8 16:00:39 2014
GPGPU-Sim PTX: 4000000 instructions simulated : ctaid=(63,0,0) tid=(159,0,0)
GPGPU-Sim PTX: 4100000 instructions simulated : ctaid=(22,0,0) tid=(255,0,0)
GPGPU-Sim PTX: 4200000 instructions simulated : ctaid=(31,0,0) tid=(255,0,0)
GPGPU-Sim PTX: 4300000 instructions simulated : ctaid=(59,0,0) tid=(191,0,0)
GPGPU-Sim PTX: 4400000 instructions simulated : ctaid=(83,0,0) tid=(191,0,0)
GPGPU-Sim uArch: cycles simulated: 6500  inst.: 4413408 (ipc=679.0) sim_rate=339492 (inst/sec) elapsed = 0:0:00:13 / Sat Mar  8 16:00:41 2014
GPGPU-Sim PTX: 4500000 instructions simulated : ctaid=(29,0,0) tid=(127,0,0)
GPGPU-Sim PTX: 4600000 instructions simulated : ctaid=(38,0,0) tid=(95,0,0)
GPGPU-Sim PTX: 4700000 instructions simulated : ctaid=(11,0,0) tid=(255,0,0)
GPGPU-Sim PTX: 4800000 instructions simulated : ctaid=(28,0,0) tid=(95,0,0)
GPGPU-Sim PTX: 4900000 instructions simulated : ctaid=(16,0,0) tid=(223,0,0)
GPGPU-Sim uArch: cycles simulated: 7000  inst.: 4928864 (ipc=704.1) sim_rate=352061 (inst/sec) elapsed = 0:0:00:14 / Sat Mar  8 16:00:42 2014
GPGPU-Sim PTX: 5000000 instructions simulated : ctaid=(7,0,0) tid=(223,0,0)
GPGPU-Sim PTX: 5100000 instructions simulated : ctaid=(15,0,0) tid=(223,0,0)
GPGPU-Sim PTX: 5200000 instructions simulated : ctaid=(73,0,0) tid=(191,0,0)
GPGPU-Sim PTX: 5300000 instructions simulated : ctaid=(28,0,0) tid=(63,0,0)
GPGPU-Sim PTX: 5400000 instructions simulated : ctaid=(16,0,0) tid=(127,0,0)
GPGPU-Sim uArch: cycles simulated: 7500  inst.: 5446176 (ipc=726.2) sim_rate=363078 (inst/sec) elapsed = 0:0:00:15 / Sat Mar  8 16:00:43 2014
GPGPU-Sim PTX: 5500000 instructions simulated : ctaid=(61,0,0) tid=(191,0,0)
GPGPU-Sim PTX: 5600000 instructions simulated : ctaid=(16,0,0) tid=(63,0,0)
GPGPU-Sim PTX: 5700000 instructions simulated : ctaid=(29,0,0) tid=(127,0,0)
GPGPU-Sim PTX: 5800000 instructions simulated : ctaid=(53,0,0) tid=(191,0,0)
GPGPU-Sim PTX: 5900000 instructions simulated : ctaid=(7,0,0) tid=(223,0,0)
GPGPU-Sim uArch: cycles simulated: 8000  inst.: 5952384 (ipc=744.0) sim_rate=372024 (inst/sec) elapsed = 0:0:00:16 / Sat Mar  8 16:00:44 2014
GPGPU-Sim PTX: 6000000 instructions simulated : ctaid=(13,0,0) tid=(63,0,0)
GPGPU-Sim PTX: 6100000 instructions simulated : ctaid=(71,0,0) tid=(255,0,0)
GPGPU-Sim PTX: 6200000 instructions simulated : ctaid=(62,0,0) tid=(255,0,0)
GPGPU-Sim PTX: 6300000 instructions simulated : ctaid=(6,0,0) tid=(95,0,0)
GPGPU-Sim PTX: 6400000 instructions simulated : ctaid=(23,0,0) tid=(223,0,0)
GPGPU-Sim uArch: cycles simulated: 8500  inst.: 6455104 (ipc=759.4) sim_rate=379712 (inst/sec) elapsed = 0:0:00:17 / Sat Mar  8 16:00:45 2014
GPGPU-Sim PTX: 6500000 instructions simulated : ctaid=(33,0,0) tid=(191,0,0)
GPGPU-Sim PTX: 6600000 instructions simulated : ctaid=(9,0,0) tid=(63,0,0)
GPGPU-Sim PTX: 6700000 instructions simulated : ctaid=(16,0,0) tid=(191,0,0)
GPGPU-Sim PTX: 6800000 instructions simulated : ctaid=(60,0,0) tid=(31,0,0)
GPGPU-Sim PTX: 6900000 instructions simulated : ctaid=(27,0,0) tid=(95,0,0)
GPGPU-Sim uArch: cycles simulated: 9000  inst.: 6946432 (ipc=771.8) sim_rate=385912 (inst/sec) elapsed = 0:0:00:18 / Sat Mar  8 16:00:46 2014
GPGPU-Sim PTX: 7000000 instructions simulated : ctaid=(56,0,0) tid=(127,0,0)
GPGPU-Sim PTX: 7100000 instructions simulated : ctaid=(37,0,0) tid=(223,0,0)
GPGPU-Sim PTX: 7200000 instructions simulated : ctaid=(40,0,0) tid=(223,0,0)
GPGPU-Sim PTX: 7300000 instructions simulated : ctaid=(1,0,0) tid=(63,0,0)
GPGPU-Sim PTX: 7400000 instructions simulated : ctaid=(3,0,0) tid=(191,0,0)
GPGPU-Sim uArch: cycles simulated: 9500  inst.: 7436928 (ipc=782.8) sim_rate=391417 (inst/sec) elapsed = 0:0:00:19 / Sat Mar  8 16:00:47 2014
GPGPU-Sim PTX: 7500000 instructions simulated : ctaid=(43,0,0) tid=(63,0,0)
GPGPU-Sim PTX: 7600000 instructions simulated : ctaid=(36,0,0) tid=(159,0,0)
GPGPU-Sim uArch: Shader 15 finished CTA #0 (9709,0), 3 CTAs running
GPGPU-Sim uArch: core: 15, cta: 0 initialized @(9710,0)
GPGPU-Sim uArch: Shader 21 finished CTA #0 (9730,0), 3 CTAs running
GPGPU-Sim uArch: core: 21, cta: 0 initialized @(9731,0)
GPGPU-Sim PTX: 7700000 instructions simulated : ctaid=(47,0,0) tid=(223,0,0)
GPGPU-Sim uArch: Shader 18 finished CTA #0 (9773,0), 3 CTAs running
GPGPU-Sim uArch: core: 18, cta: 0 initialized @(9774,0)
GPGPU-Sim uArch: Shader 0 finished CTA #0 (9805,0), 3 CTAs running
GPGPU-Sim uArch: core:  0, cta: 0 initialized @(9806,0)
GPGPU-Sim uArch: Shader 27 finished CTA #0 (9814,0), 3 CTAs running
GPGPU-Sim uArch: core: 27, cta: 0 initialized @(9815,0)
GPGPU-Sim uArch: Shader 9 finished CTA #0 (9838,0), 3 CTAs running
GPGPU-Sim uArch: core:  9, cta: 0 initialized @(9839,0)
GPGPU-Sim uArch: Shader 8 finished CTA #0 (9848,0), 3 CTAs running
GPGPU-Sim uArch: core:  8, cta: 0 initialized @(9849,0)
GPGPU-Sim PTX: 7800000 instructions simulated : ctaid=(1,0,0) tid=(191,0,0)
GPGPU-Sim uArch: Shader 12 finished CTA #0 (9857,0), 3 CTAs running
GPGPU-Sim uArch: core: 12, cta: 0 initialized @(9858,0)
GPGPU-Sim uArch: Shader 22 finished CTA #0 (9875,0), 3 CTAs running
GPGPU-Sim uArch: core: 22, cta: 0 initialized @(9876,0)
GPGPU-Sim uArch: Shader 3 finished CTA #0 (9883,0), 3 CTAs running
GPGPU-Sim uArch: core:  3, cta: 0 initialized @(9884,0)
GPGPU-Sim uArch: Shader 24 finished CTA #0 (9908,0), 3 CTAs running
GPGPU-Sim uArch: core: 24, cta: 0 initialized @(9909,0)
GPGPU-Sim uArch: Shader 28 finished CTA #0 (9909,0), 3 CTAs running
GPGPU-Sim uArch: core: 28, cta: 0 initialized @(9910,0)
GPGPU-Sim uArch: Shader 7 finished CTA #0 (9913,0), 3 CTAs running
GPGPU-Sim uArch: core:  7, cta: 0 initialized @(9914,0)
GPGPU-Sim uArch: Shader 16 finished CTA #0 (9927,0), 3 CTAs running
GPGPU-Sim uArch: core: 16, cta: 0 initialized @(9928,0)
GPGPU-Sim uArch: Shader 11 finished CTA #0 (9946,0), 3 CTAs running
GPGPU-Sim uArch: core: 11, cta: 0 initialized @(9947,0)
GPGPU-Sim PTX: 7900000 instructions simulated : ctaid=(57,0,0) tid=(191,0,0)
GPGPU-Sim uArch: Shader 23 finished CTA #0 (9961,0), 3 CTAs running
GPGPU-Sim uArch: core: 23, cta: 0 initialized @(9962,0)
GPGPU-Sim uArch: Shader 29 finished CTA #0 (9977,0), 3 CTAs running
GPGPU-Sim uArch: core: 29, cta: 0 initialized @(9978,0)
GPGPU-Sim uArch: Shader 14 finished CTA #0 (9987,0), 3 CTAs running
GPGPU-Sim uArch: core: 14, cta: 0 initialized @(9988,0)
GPGPU-Sim uArch: cycles simulated: 10000  inst.: 7940608 (ipc=794.1) sim_rate=378124 (inst/sec) elapsed = 0:0:00:21 / Sat Mar  8 16:00:49 2014
GPGPU-Sim uArch: Shader 10 finished CTA #0 (10006,0), 3 CTAs running
GPGPU-Sim uArch: core: 10, cta: 0 initialized @(10007,0)
GPGPU-Sim uArch: Shader 5 finished CTA #0 (10007,0), 3 CTAs running
GPGPU-Sim uArch: core:  5, cta: 0 initialized @(10008,0)
GPGPU-Sim uArch: Shader 6 finished CTA #0 (10016,0), 3 CTAs running
GPGPU-Sim uArch: core:  6, cta: 0 initialized @(10017,0)
GPGPU-Sim uArch: Shader 17 finished CTA #0 (10020,0), 3 CTAs running
GPGPU-Sim uArch: core: 17, cta: 0 initialized @(10021,0)
GPGPU-Sim uArch: Shader 1 finished CTA #0 (10029,0), 3 CTAs running
GPGPU-Sim uArch: core:  1, cta: 0 initialized @(10030,0)
GPGPU-Sim PTX: 8000000 instructions simulated : ctaid=(53,0,0) tid=(159,0,0)
GPGPU-Sim uArch: Shader 2 finished CTA #0 (10053,0), 3 CTAs running
GPGPU-Sim uArch: Shader 4 finished CTA #0 (10053,0), 3 CTAs running
GPGPU-Sim uArch: core:  4, cta: 0 initialized @(10054,0)
GPGPU-Sim uArch: core:  2, cta: 0 initialized @(10054,0)
GPGPU-Sim uArch: Shader 13 finished CTA #0 (10076,0), 3 CTAs running
GPGPU-Sim uArch: core: 13, cta: 0 initialized @(10077,0)
GPGPU-Sim uArch: Shader 19 finished CTA #0 (10085,0), 3 CTAs running
GPGPU-Sim uArch: core: 19, cta: 0 initialized @(10086,0)
GPGPU-Sim uArch: Shader 25 finished CTA #0 (10091,0), 3 CTAs running
GPGPU-Sim uArch: core: 25, cta: 0 initialized @(10092,0)
GPGPU-Sim uArch: Shader 26 finished CTA #0 (10097,0), 3 CTAs running
GPGPU-Sim uArch: core: 26, cta: 0 initialized @(10098,0)
GPGPU-Sim uArch: Shader 20 finished CTA #0 (10103,0), 3 CTAs running
GPGPU-Sim uArch: core: 20, cta: 0 initialized @(10104,0)
GPGPU-Sim PTX: 8100000 instructions simulated : ctaid=(83,0,0) tid=(159,0,0)
GPGPU-Sim PTX: 8200000 instructions simulated : ctaid=(31,0,0) tid=(255,0,0)
GPGPU-Sim PTX: 8300000 instructions simulated : ctaid=(35,0,0) tid=(127,0,0)
GPGPU-Sim PTX: 8400000 instructions simulated : ctaid=(42,0,0) tid=(127,0,0)
GPGPU-Sim uArch: cycles simulated: 10500  inst.: 8460416 (ipc=805.8) sim_rate=384564 (inst/sec) elapsed = 0:0:00:22 / Sat Mar  8 16:00:50 2014
GPGPU-Sim PTX: 8500000 instructions simulated : ctaid=(49,0,0) tid=(31,0,0)
GPGPU-Sim PTX: 8600000 instructions simulated : ctaid=(33,0,0) tid=(63,0,0)
GPGPU-Sim PTX: 8700000 instructions simulated : ctaid=(71,0,0) tid=(31,0,0)
GPGPU-Sim PTX: 8800000 instructions simulated : ctaid=(52,0,0) tid=(223,0,0)
GPGPU-Sim uArch: Shader 9 finished CTA #1 (10866,0), 3 CTAs running
GPGPU-Sim uArch: core:  9, cta: 1 initialized @(10867,0)
GPGPU-Sim uArch: Shader 18 finished CTA #1 (10872,0), 3 CTAs running
GPGPU-Sim uArch: core: 18, cta: 1 initialized @(10873,0)
GPGPU-Sim PTX: 8900000 instructions simulated : ctaid=(45,0,0) tid=(255,0,0)
GPGPU-Sim uArch: Shader 11 finished CTA #1 (10940,0), 3 CTAs running
GPGPU-Sim uArch: core: 11, cta: 1 initialized @(10941,0)
GPGPU-Sim uArch: Shader 22 finished CTA #1 (10952,0), 3 CTAs running
GPGPU-Sim uArch: core: 22, cta: 1 initialized @(10953,0)
GPGPU-Sim uArch: Shader 3 finished CTA #1 (10975,0), 3 CTAs running
GPGPU-Sim uArch: core:  3, cta: 1 initialized @(10976,0)
GPGPU-Sim uArch: cycles simulated: 11000  inst.: 8984928 (ipc=816.8) sim_rate=390649 (inst/sec) elapsed = 0:0:00:23 / Sat Mar  8 16:00:51 2014
GPGPU-Sim PTX: 9000000 instructions simulated : ctaid=(51,0,0) tid=(127,0,0)
GPGPU-Sim uArch: Shader 1 finished CTA #1 (11013,0), 3 CTAs running
GPGPU-Sim uArch: core:  1, cta: 1 initialized @(11014,0)
GPGPU-Sim uArch: Shader 12 finished CTA #1 (11026,0), 3 CTAs running
GPGPU-Sim uArch: core: 12, cta: 1 initialized @(11027,0)
GPGPU-Sim uArch: Shader 6 finished CTA #1 (11037,0), 3 CTAs running
GPGPU-Sim uArch: core:  6, cta: 1 initialized @(11038,0)
GPGPU-Sim uArch: Shader 21 finished CTA #1 (11040,0), 3 CTAs running
GPGPU-Sim uArch: core: 21, cta: 1 initialized @(11041,0)
GPGPU-Sim uArch: Shader 7 finished CTA #1 (11054,0), 3 CTAs running
GPGPU-Sim uArch: core:  7, cta: 1 initialized @(11055,0)
GPGPU-Sim uArch: Shader 5 finished CTA #1 (11064,0), 3 CTAs running
GPGPU-Sim uArch: core:  5, cta: 1 initialized @(11065,0)
GPGPU-Sim uArch: Shader 15 finished CTA #1 (11078,0), 3 CTAs running
GPGPU-Sim uArch: core: 15, cta: 1 initialized @(11079,0)
GPGPU-Sim uArch: Shader 10 finished CTA #1 (11082,0), 3 CTAs running
GPGPU-Sim uArch: core: 10, cta: 1 initialized @(11083,0)
GPGPU-Sim uArch: Shader 28 finished CTA #1 (11086,0), 3 CTAs running
GPGPU-Sim uArch: core: 28, cta: 1 initialized @(11087,0)
GPGPU-Sim uArch: Shader 0 finished CTA #1 (11098,0), 3 CTAs running
GPGPU-Sim uArch: core:  0, cta: 1 initialized @(11099,0)
GPGPU-Sim PTX: 9100000 instructions simulated : ctaid=(106,0,0) tid=(63,0,0)
GPGPU-Sim uArch: Shader 16 finished CTA #1 (11163,0), 3 CTAs running
GPGPU-Sim uArch: core: 16, cta: 1 initialized @(11164,0)
GPGPU-Sim uArch: Shader 27 finished CTA #1 (11172,0), 3 CTAs running
GPGPU-Sim uArch: core: 27, cta: 1 initialized @(11173,0)
GPGPU-Sim uArch: Shader 8 finished CTA #1 (11183,0), 3 CTAs running
GPGPU-Sim uArch: core:  8, cta: 1 initialized @(11184,0)
GPGPU-Sim uArch: Shader 4 finished CTA #1 (11188,0), 3 CTAs running
GPGPU-Sim uArch: core:  4, cta: 1 initialized @(11189,0)
GPGPU-Sim PTX: 9200000 instructions simulated : ctaid=(84,0,0) tid=(223,0,0)
GPGPU-Sim uArch: Shader 23 finished CTA #1 (11207,0), 3 CTAs running
GPGPU-Sim uArch: core: 23, cta: 1 initialized @(11208,0)
GPGPU-Sim uArch: Shader 24 finished CTA #1 (11220,0), 3 CTAs running
GPGPU-Sim uArch: core: 24, cta: 1 initialized @(11221,0)
GPGPU-Sim uArch: Shader 17 finished CTA #1 (11234,0), 3 CTAs running
GPGPU-Sim uArch: core: 17, cta: 1 initialized @(11235,0)
GPGPU-Sim uArch: Shader 19 finished CTA #1 (11245,0), 3 CTAs running
GPGPU-Sim uArch: core: 19, cta: 1 initialized @(11246,0)
GPGPU-Sim uArch: Shader 2 finished CTA #1 (11248,0), 3 CTAs running
GPGPU-Sim uArch: core:  2, cta: 1 initialized @(11249,0)
GPGPU-Sim uArch: Shader 29 finished CTA #1 (11255,0), 3 CTAs running
GPGPU-Sim uArch: core: 29, cta: 1 initialized @(11256,0)
GPGPU-Sim PTX: 9300000 instructions simulated : ctaid=(133,0,0) tid=(127,0,0)
GPGPU-Sim PTX: 9400000 instructions simulated : ctaid=(166,0,0) tid=(127,0,0)
GPGPU-Sim uArch: Shader 14 finished CTA #1 (11401,0), 3 CTAs running
GPGPU-Sim uArch: core: 14, cta: 1 initialized @(11402,0)
GPGPU-Sim uArch: Shader 26 finished CTA #1 (11405,0), 3 CTAs running
GPGPU-Sim uArch: core: 26, cta: 1 initialized @(11406,0)
GPGPU-Sim uArch: Shader 13 finished CTA #1 (11421,0), 3 CTAs running
GPGPU-Sim uArch: core: 13, cta: 1 initialized @(11422,0)
GPGPU-Sim uArch: Shader 25 finished CTA #1 (11429,0), 3 CTAs running
GPGPU-Sim uArch: core: 25, cta: 1 initialized @(11430,0)
GPGPU-Sim PTX: 9500000 instructions simulated : ctaid=(90,0,0) tid=(159,0,0)
GPGPU-Sim uArch: cycles simulated: 11500  inst.: 9499232 (ipc=826.0) sim_rate=379969 (inst/sec) elapsed = 0:0:00:25 / Sat Mar  8 16:00:53 2014
GPGPU-Sim uArch: Shader 20 finished CTA #1 (11545,0), 3 CTAs running
GPGPU-Sim uArch: core: 20, cta: 1 initialized @(11546,0)
GPGPU-Sim PTX: 9600000 instructions simulated : ctaid=(76,0,0) tid=(127,0,0)
GPGPU-Sim PTX: 9700000 instructions simulated : ctaid=(81,0,0) tid=(255,0,0)
GPGPU-Sim PTX: 9800000 instructions simulated : ctaid=(106,0,0) tid=(191,0,0)
GPGPU-Sim PTX: 9900000 instructions simulated : ctaid=(87,0,0) tid=(127,0,0)
GPGPU-Sim PTX: 10000000 instructions simulated : ctaid=(142,0,0) tid=(255,0,0)
GPGPU-Sim uArch: cycles simulated: 12000  inst.: 10019584 (ipc=835.0) sim_rate=385368 (inst/sec) elapsed = 0:0:00:26 / Sat Mar  8 16:00:54 2014
GPGPU-Sim PTX: 10100000 instructions simulated : ctaid=(95,0,0) tid=(127,0,0)
GPGPU-Sim PTX: 10200000 instructions simulated : ctaid=(119,0,0) tid=(95,0,0)
GPGPU-Sim PTX: 10300000 instructions simulated : ctaid=(74,0,0) tid=(255,0,0)
GPGPU-Sim PTX: 10400000 instructions simulated : ctaid=(138,0,0) tid=(223,0,0)
GPGPU-Sim PTX: 10500000 instructions simulated : ctaid=(99,0,0) tid=(63,0,0)
GPGPU-Sim uArch: cycles simulated: 12500  inst.: 10555936 (ipc=844.5) sim_rate=390960 (inst/sec) elapsed = 0:0:00:27 / Sat Mar  8 16:00:55 2014
GPGPU-Sim PTX: 10600000 instructions simulated : ctaid=(179,0,0) tid=(95,0,0)
GPGPU-Sim PTX: 10700000 instructions simulated : ctaid=(78,0,0) tid=(191,0,0)
GPGPU-Sim PTX: 10800000 instructions simulated : ctaid=(104,0,0) tid=(31,0,0)
GPGPU-Sim PTX: 10900000 instructions simulated : ctaid=(62,0,0) tid=(159,0,0)
GPGPU-Sim PTX: 11000000 instructions simulated : ctaid=(88,0,0) tid=(95,0,0)
GPGPU-Sim uArch: cycles simulated: 13000  inst.: 11084128 (ipc=852.6) sim_rate=382211 (inst/sec) elapsed = 0:0:00:29 / Sat Mar  8 16:00:57 2014
GPGPU-Sim PTX: 11100000 instructions simulated : ctaid=(144,0,0) tid=(191,0,0)
GPGPU-Sim PTX: 11200000 instructions simulated : ctaid=(80,0,0) tid=(31,0,0)
GPGPU-Sim PTX: 11300000 instructions simulated : ctaid=(82,0,0) tid=(223,0,0)
GPGPU-Sim PTX: 11400000 instructions simulated : ctaid=(64,0,0) tid=(255,0,0)
GPGPU-Sim PTX: 11500000 instructions simulated : ctaid=(77,0,0) tid=(191,0,0)
GPGPU-Sim PTX: 11600000 instructions simulated : ctaid=(101,0,0) tid=(95,0,0)
GPGPU-Sim uArch: cycles simulated: 13500  inst.: 11594976 (ipc=858.9) sim_rate=386499 (inst/sec) elapsed = 0:0:00:30 / Sat Mar  8 16:00:58 2014
GPGPU-Sim PTX: 11700000 instructions simulated : ctaid=(70,0,0) tid=(191,0,0)
GPGPU-Sim PTX: 11800000 instructions simulated : ctaid=(69,0,0) tid=(159,0,0)
GPGPU-Sim PTX: 11900000 instructions simulated : ctaid=(84,0,0) tid=(63,0,0)
GPGPU-Sim PTX: 12000000 instructions simulated : ctaid=(149,0,0) tid=(223,0,0)
GPGPU-Sim PTX: 12100000 instructions simulated : ctaid=(148,0,0) tid=(63,0,0)
GPGPU-Sim uArch: cycles simulated: 14000  inst.: 12092800 (ipc=863.8) sim_rate=390090 (inst/sec) elapsed = 0:0:00:31 / Sat Mar  8 16:00:59 2014
GPGPU-Sim PTX: 12200000 instructions simulated : ctaid=(108,0,0) tid=(127,0,0)
GPGPU-Sim PTX: 12300000 instructions simulated : ctaid=(105,0,0) tid=(63,0,0)
GPGPU-Sim PTX: 12400000 instructions simulated : ctaid=(79,0,0) tid=(127,0,0)
GPGPU-Sim PTX: 12500000 instructions simulated : ctaid=(87,0,0) tid=(31,0,0)
GPGPU-Sim uArch: cycles simulated: 14500  inst.: 12573440 (ipc=867.1) sim_rate=392920 (inst/sec) elapsed = 0:0:00:32 / Sat Mar  8 16:01:00 2014
GPGPU-Sim PTX: 12600000 instructions simulated : ctaid=(104,0,0) tid=(191,0,0)
GPGPU-Sim PTX: 12700000 instructions simulated : ctaid=(94,0,0) tid=(127,0,0)
GPGPU-Sim PTX: 12800000 instructions simulated : ctaid=(96,0,0) tid=(255,0,0)
GPGPU-Sim PTX: 12900000 instructions simulated : ctaid=(146,0,0) tid=(31,0,0)
GPGPU-Sim PTX: 13000000 instructions simulated : ctaid=(70,0,0) tid=(255,0,0)
GPGPU-Sim uArch: cycles simulated: 15000  inst.: 13041280 (ipc=869.4) sim_rate=395190 (inst/sec) elapsed = 0:0:00:33 / Sat Mar  8 16:01:01 2014
GPGPU-Sim PTX: 13100000 instructions simulated : ctaid=(126,0,0) tid=(95,0,0)
GPGPU-Sim PTX: 13200000 instructions simulated : ctaid=(85,0,0) tid=(127,0,0)
GPGPU-Sim uArch: Shader 3 finished CTA #2 (15226,0), 3 CTAs running
GPGPU-Sim uArch: core:  3, cta: 2 initialized @(15227,0)
GPGPU-Sim PTX: 13300000 instructions simulated : ctaid=(91,0,0) tid=(95,0,0)
GPGPU-Sim uArch: Shader 18 finished CTA #2 (15252,0), 3 CTAs running
GPGPU-Sim uArch: core: 18, cta: 2 initialized @(15253,0)
GPGPU-Sim uArch: Shader 21 finished CTA #2 (15256,0), 3 CTAs running
GPGPU-Sim uArch: core: 21, cta: 2 initialized @(15257,0)
GPGPU-Sim uArch: Shader 15 finished CTA #2 (15273,0), 3 CTAs running
GPGPU-Sim uArch: core: 15, cta: 2 initialized @(15274,0)
GPGPU-Sim uArch: Shader 12 finished CTA #2 (15291,0), 3 CTAs running
GPGPU-Sim uArch: core: 12, cta: 2 initialized @(15292,0)
GPGPU-Sim PTX: 13400000 instructions simulated : ctaid=(86,0,0) tid=(255,0,0)
GPGPU-Sim uArch: Shader 7 finished CTA #2 (15359,0), 3 CTAs running
GPGPU-Sim uArch: core:  7, cta: 2 initialized @(15360,0)
GPGPU-Sim uArch: Shader 28 finished CTA #2 (15361,0), 3 CTAs running
GPGPU-Sim uArch: core: 28, cta: 2 initialized @(15362,0)
GPGPU-Sim uArch: Shader 8 finished CTA #2 (15409,0), 3 CTAs running
GPGPU-Sim uArch: core:  8, cta: 2 initialized @(15410,0)
GPGPU-Sim uArch: Shader 19 finished CTA #2 (15438,0), 3 CTAs running
GPGPU-Sim uArch: core: 19, cta: 2 initialized @(15439,0)
GPGPU-Sim PTX: 13500000 instructions simulated : ctaid=(101,0,0) tid=(159,0,0)
GPGPU-Sim uArch: Shader 27 finished CTA #2 (15454,0), 3 CTAs running
GPGPU-Sim uArch: core: 27, cta: 2 initialized @(15455,0)
GPGPU-Sim uArch: Shader 0 finished CTA #2 (15459,0), 3 CTAs running
GPGPU-Sim uArch: core:  0, cta: 2 initialized @(15460,0)
GPGPU-Sim uArch: Shader 6 finished CTA #2 (15463,0), 3 CTAs running
GPGPU-Sim uArch: core:  6, cta: 2 initialized @(15464,0)
GPGPU-Sim uArch: Shader 16 finished CTA #2 (15465,0), 3 CTAs running
GPGPU-Sim uArch: core: 16, cta: 2 initialized @(15466,0)
GPGPU-Sim uArch: Shader 10 finished CTA #2 (15467,0), 3 CTAs running
GPGPU-Sim uArch: core: 10, cta: 2 initialized @(15468,0)
GPGPU-Sim uArch: cycles simulated: 15500  inst.: 13540128 (ipc=873.6) sim_rate=386860 (inst/sec) elapsed = 0:0:00:35 / Sat Mar  8 16:01:03 2014
GPGPU-Sim uArch: Shader 23 finished CTA #2 (15500,0), 3 CTAs running
GPGPU-Sim uArch: core: 23, cta: 2 initialized @(15501,0)
GPGPU-Sim uArch: Shader 5 finished CTA #2 (15502,0), 3 CTAs running
GPGPU-Sim uArch: core:  5, cta: 2 initialized @(15503,0)
GPGPU-Sim uArch: Shader 17 finished CTA #2 (15542,0), 3 CTAs running
GPGPU-Sim uArch: core: 17, cta: 2 initialized @(15543,0)
GPGPU-Sim uArch: Shader 9 finished CTA #2 (15545,0), 3 CTAs running
GPGPU-Sim uArch: core:  9, cta: 2 initialized @(15546,0)
GPGPU-Sim PTX: 13600000 instructions simulated : ctaid=(144,0,0) tid=(95,0,0)
GPGPU-Sim uArch: Shader 24 finished CTA #2 (15561,0), 3 CTAs running
GPGPU-Sim uArch: core: 24, cta: 2 initialized @(15562,0)
GPGPU-Sim uArch: Shader 1 finished CTA #2 (15564,0), 3 CTAs running
GPGPU-Sim uArch: core:  1, cta: 2 initialized @(15565,0)
GPGPU-Sim uArch: Shader 29 finished CTA #2 (15585,0), 3 CTAs running
GPGPU-Sim uArch: core: 29, cta: 2 initialized @(15586,0)
GPGPU-Sim uArch: Shader 2 finished CTA #2 (15603,0), 3 CTAs running
GPGPU-Sim uArch: core:  2, cta: 2 initialized @(15604,0)
GPGPU-Sim uArch: Shader 22 finished CTA #2 (15607,0), 3 CTAs running
GPGPU-Sim uArch: core: 22, cta: 2 initialized @(15608,0)
GPGPU-Sim uArch: Shader 11 finished CTA #2 (15639,0), 3 CTAs running
GPGPU-Sim uArch: core: 11, cta: 2 initialized @(15640,0)
GPGPU-Sim uArch: Shader 26 finished CTA #2 (15641,0), 3 CTAs running
GPGPU-Sim uArch: core: 26, cta: 2 initialized @(15642,0)
GPGPU-Sim uArch: Shader 20 finished CTA #2 (15645,0), 3 CTAs running
GPGPU-Sim uArch: core: 20, cta: 2 initialized @(15646,0)
GPGPU-Sim PTX: 13700000 instructions simulated : ctaid=(107,0,0) tid=(255,0,0)
GPGPU-Sim uArch: Shader 4 finished CTA #2 (15684,0), 3 CTAs running
GPGPU-Sim uArch: core:  4, cta: 2 initialized @(15685,0)
GPGPU-Sim uArch: Shader 14 finished CTA #2 (15698,0), 3 CTAs running
GPGPU-Sim uArch: core: 14, cta: 2 initialized @(15699,0)
GPGPU-Sim uArch: Shader 25 finished CTA #2 (15715,0), 3 CTAs running
GPGPU-Sim uArch: core: 25, cta: 2 initialized @(15716,0)
GPGPU-Sim uArch: Shader 13 finished CTA #2 (15725,0), 3 CTAs running
GPGPU-Sim uArch: core: 13, cta: 2 initialized @(15726,0)
GPGPU-Sim PTX: 13800000 instructions simulated : ctaid=(173,0,0) tid=(127,0,0)
GPGPU-Sim PTX: 13900000 instructions simulated : ctaid=(104,0,0) tid=(95,0,0)
GPGPU-Sim PTX: 14000000 instructions simulated : ctaid=(104,0,0) tid=(255,0,0)
GPGPU-Sim uArch: cycles simulated: 16000  inst.: 14057664 (ipc=878.6) sim_rate=390490 (inst/sec) elapsed = 0:0:00:36 / Sat Mar  8 16:01:04 2014
GPGPU-Sim PTX: 14100000 instructions simulated : ctaid=(173,0,0) tid=(159,0,0)
GPGPU-Sim PTX: 14200000 instructions simulated : ctaid=(113,0,0) tid=(95,0,0)
GPGPU-Sim PTX: 14300000 instructions simulated : ctaid=(135,0,0) tid=(159,0,0)
GPGPU-Sim PTX: 14400000 instructions simulated : ctaid=(148,0,0) tid=(191,0,0)
GPGPU-Sim PTX: 14500000 instructions simulated : ctaid=(125,0,0) tid=(31,0,0)
GPGPU-Sim PTX: 14600000 instructions simulated : ctaid=(90,0,0) tid=(31,0,0)
GPGPU-Sim uArch: cycles simulated: 16500  inst.: 14590016 (ipc=884.2) sim_rate=383947 (inst/sec) elapsed = 0:0:00:38 / Sat Mar  8 16:01:06 2014
GPGPU-Sim PTX: 14700000 instructions simulated : ctaid=(171,0,0) tid=(31,0,0)
GPGPU-Sim PTX: 14800000 instructions simulated : ctaid=(135,0,0) tid=(63,0,0)
GPGPU-Sim PTX: 14900000 instructions simulated : ctaid=(126,0,0) tid=(191,0,0)
GPGPU-Sim PTX: 15000000 instructions simulated : ctaid=(117,0,0) tid=(63,0,0)
GPGPU-Sim PTX: 15100000 instructions simulated : ctaid=(110,0,0) tid=(63,0,0)
GPGPU-Sim uArch: cycles simulated: 17000  inst.: 15116800 (ipc=889.2) sim_rate=387610 (inst/sec) elapsed = 0:0:00:39 / Sat Mar  8 16:01:07 2014
GPGPU-Sim PTX: 15200000 instructions simulated : ctaid=(176,0,0) tid=(255,0,0)
GPGPU-Sim PTX: 15300000 instructions simulated : ctaid=(103,0,0) tid=(191,0,0)
GPGPU-Sim PTX: 15400000 instructions simulated : ctaid=(133,0,0) tid=(223,0,0)
GPGPU-Sim PTX: 15500000 instructions simulated : ctaid=(171,0,0) tid=(223,0,0)
GPGPU-Sim PTX: 15600000 instructions simulated : ctaid=(123,0,0) tid=(159,0,0)
GPGPU-Sim uArch: cycles simulated: 17500  inst.: 15632704 (ipc=893.3) sim_rate=390817 (inst/sec) elapsed = 0:0:00:40 / Sat Mar  8 16:01:08 2014
GPGPU-Sim PTX: 15700000 instructions simulated : ctaid=(154,0,0) tid=(31,0,0)
GPGPU-Sim PTX: 15800000 instructions simulated : ctaid=(137,0,0) tid=(95,0,0)
GPGPU-Sim PTX: 15900000 instructions simulated : ctaid=(174,0,0) tid=(63,0,0)
GPGPU-Sim PTX: 16000000 instructions simulated : ctaid=(179,0,0) tid=(63,0,0)
GPGPU-Sim PTX: 16100000 instructions simulated : ctaid=(108,0,0) tid=(31,0,0)
GPGPU-Sim uArch: cycles simulated: 18000  inst.: 16128512 (ipc=896.0) sim_rate=393378 (inst/sec) elapsed = 0:0:00:41 / Sat Mar  8 16:01:09 2014
GPGPU-Sim PTX: 16200000 instructions simulated : ctaid=(125,0,0) tid=(223,0,0)
GPGPU-Sim PTX: 16300000 instructions simulated : ctaid=(156,0,0) tid=(63,0,0)
GPGPU-Sim PTX: 16400000 instructions simulated : ctaid=(111,0,0) tid=(31,0,0)
GPGPU-Sim uArch: Shader 4 finished CTA #3 (18309,0), 3 CTAs running
GPGPU-Sim uArch: core:  4, cta: 3 initialized @(18310,0)
GPGPU-Sim uArch: Shader 9 finished CTA #3 (18315,0), 3 CTAs running
GPGPU-Sim uArch: core:  9, cta: 3 initialized @(18316,0)
GPGPU-Sim PTX: 16500000 instructions simulated : ctaid=(139,0,0) tid=(159,0,0)
GPGPU-Sim uArch: Shader 11 finished CTA #3 (18379,0), 3 CTAs running
GPGPU-Sim uArch: core: 11, cta: 3 initialized @(18380,0)
GPGPU-Sim uArch: Shader 17 finished CTA #3 (18395,0), 3 CTAs running
GPGPU-Sim uArch: core: 17, cta: 3 initialized @(18396,0)
GPGPU-Sim uArch: Shader 22 finished CTA #3 (18400,0), 3 CTAs running
GPGPU-Sim uArch: core: 22, cta: 3 initialized @(18401,0)
GPGPU-Sim uArch: Shader 1 finished CTA #3 (18421,0), 3 CTAs running
GPGPU-Sim uArch: core:  1, cta: 3 initialized @(18422,0)
GPGPU-Sim PTX: 16600000 instructions simulated : ctaid=(146,0,0) tid=(191,0,0)
GPGPU-Sim uArch: Shader 27 finished CTA #3 (18462,0), 3 CTAs running
GPGPU-Sim uArch: core: 27, cta: 3 initialized @(18463,0)
GPGPU-Sim uArch: Shader 12 finished CTA #3 (18469,0), 3 CTAs running
GPGPU-Sim uArch: core: 12, cta: 3 initialized @(18470,0)
GPGPU-Sim uArch: cycles simulated: 18500  inst.: 16636512 (ipc=899.3) sim_rate=386895 (inst/sec) elapsed = 0:0:00:43 / Sat Mar  8 16:01:11 2014
GPGPU-Sim uArch: Shader 14 finished CTA #3 (18549,0), 3 CTAs running
GPGPU-Sim uArch: core: 14, cta: 3 initialized @(18550,0)
GPGPU-Sim uArch: Shader 24 finished CTA #3 (18551,0), 3 CTAs running
GPGPU-Sim uArch: core: 24, cta: 3 initialized @(18552,0)
GPGPU-Sim PTX: 16700000 instructions simulated : ctaid=(132,0,0) tid=(31,0,0)
GPGPU-Sim uArch: Shader 6 finished CTA #3 (18563,0), 3 CTAs running
GPGPU-Sim uArch: core:  6, cta: 3 initialized @(18564,0)
GPGPU-Sim uArch: Shader 10 finished CTA #3 (18585,0), 3 CTAs running
GPGPU-Sim uArch: core: 10, cta: 3 initialized @(18586,0)
GPGPU-Sim uArch: Shader 26 finished CTA #3 (18605,0), 3 CTAs running
GPGPU-Sim uArch: core: 26, cta: 3 initialized @(18606,0)
GPGPU-Sim uArch: Shader 13 finished CTA #3 (18610,0), 3 CTAs running
GPGPU-Sim uArch: core: 13, cta: 3 initialized @(18611,0)
GPGPU-Sim uArch: Shader 0 finished CTA #3 (18631,0), 3 CTAs running
GPGPU-Sim uArch: core:  0, cta: 3 initialized @(18632,0)
GPGPU-Sim uArch: Shader 16 finished CTA #3 (18635,0), 3 CTAs running
GPGPU-Sim uArch: core: 16, cta: 3 initialized @(18636,0)
GPGPU-Sim uArch: Shader 20 finished CTA #3 (18638,0), 3 CTAs running
GPGPU-Sim uArch: core: 20, cta: 3 initialized @(18639,0)
GPGPU-Sim PTX: 16800000 instructions simulated : ctaid=(189,0,0) tid=(31,0,0)
GPGPU-Sim uArch: Shader 15 finished CTA #3 (18709,0), 3 CTAs running
GPGPU-Sim uArch: core: 15, cta: 3 initialized @(18710,0)
GPGPU-Sim uArch: Shader 18 finished CTA #3 (18726,0), 3 CTAs running
GPGPU-Sim uArch: Shader 23 finished CTA #3 (18726,0), 3 CTAs running
GPGPU-Sim uArch: core: 18, cta: 3 initialized @(18727,0)
GPGPU-Sim uArch: core: 23, cta: 3 initialized @(18727,0)
GPGPU-Sim uArch: Shader 21 finished CTA #3 (18745,0), 3 CTAs running
GPGPU-Sim uArch: core: 21, cta: 3 initialized @(18746,0)
GPGPU-Sim PTX: 16900000 instructions simulated : ctaid=(134,0,0) tid=(95,0,0)
GPGPU-Sim uArch: Shader 19 finished CTA #3 (18787,0), 3 CTAs running
GPGPU-Sim uArch: core: 19, cta: 3 initialized @(18788,0)
GPGPU-Sim uArch: Shader 25 finished CTA #3 (18820,0), 3 CTAs running
GPGPU-Sim uArch: core: 25, cta: 3 initialized @(18821,0)
GPGPU-Sim uArch: Shader 7 finished CTA #3 (18822,0), 3 CTAs running
GPGPU-Sim uArch: core:  7, cta: 3 initialized @(18823,0)
GPGPU-Sim uArch: Shader 8 finished CTA #3 (18841,0), 3 CTAs running
GPGPU-Sim uArch: core:  8, cta: 3 initialized @(18842,0)
GPGPU-Sim PTX: 17000000 instructions simulated : ctaid=(137,0,0) tid=(159,0,0)
GPGPU-Sim uArch: Shader 29 finished CTA #3 (18871,0), 3 CTAs running
GPGPU-Sim uArch: core: 29, cta: 3 initialized @(18872,0)
GPGPU-Sim PTX: 17100000 instructions simulated : ctaid=(146,0,0) tid=(127,0,0)
GPGPU-Sim uArch: Shader 3 finished CTA #3 (18953,0), 3 CTAs running
GPGPU-Sim uArch: core:  3, cta: 3 initialized @(18954,0)
GPGPU-Sim uArch: Shader 5 finished CTA #3 (18961,0), 3 CTAs running
GPGPU-Sim uArch: core:  5, cta: 3 initialized @(18962,0)
GPGPU-Sim uArch: Shader 2 finished CTA #3 (18964,0), 3 CTAs running
GPGPU-Sim uArch: core:  2, cta: 3 initialized @(18965,0)
GPGPU-Sim uArch: cycles simulated: 19000  inst.: 17152480 (ipc=902.8) sim_rate=381166 (inst/sec) elapsed = 0:0:00:45 / Sat Mar  8 16:01:13 2014
GPGPU-Sim PTX: 17200000 instructions simulated : ctaid=(162,0,0) tid=(127,0,0)
GPGPU-Sim uArch: Shader 28 finished CTA #3 (19061,0), 3 CTAs running
GPGPU-Sim uArch: core: 28, cta: 3 initialized @(19062,0)
GPGPU-Sim PTX: 17300000 instructions simulated : ctaid=(145,0,0) tid=(127,0,0)
GPGPU-Sim PTX: 17400000 instructions simulated : ctaid=(182,0,0) tid=(159,0,0)
GPGPU-Sim PTX: 17500000 instructions simulated : ctaid=(150,0,0) tid=(31,0,0)
GPGPU-Sim PTX: 17600000 instructions simulated : ctaid=(204,0,0) tid=(63,0,0)
GPGPU-Sim uArch: cycles simulated: 19500  inst.: 17684640 (ipc=906.9) sim_rate=384448 (inst/sec) elapsed = 0:0:00:46 / Sat Mar  8 16:01:14 2014
GPGPU-Sim PTX: 17700000 instructions simulated : ctaid=(219,0,0) tid=(127,0,0)
GPGPU-Sim PTX: 17800000 instructions simulated : ctaid=(149,0,0) tid=(255,0,0)
GPGPU-Sim PTX: 17900000 instructions simulated : ctaid=(145,0,0) tid=(95,0,0)
GPGPU-Sim PTX: 18000000 instructions simulated : ctaid=(203,0,0) tid=(191,0,0)
GPGPU-Sim PTX: 18100000 instructions simulated : ctaid=(173,0,0) tid=(159,0,0)
GPGPU-Sim PTX: 18200000 instructions simulated : ctaid=(126,0,0) tid=(127,0,0)
GPGPU-Sim uArch: cycles simulated: 20000  inst.: 18219456 (ipc=911.0) sim_rate=387648 (inst/sec) elapsed = 0:0:00:47 / Sat Mar  8 16:01:15 2014
GPGPU-Sim PTX: 18300000 instructions simulated : ctaid=(123,0,0) tid=(63,0,0)
GPGPU-Sim PTX: 18400000 instructions simulated : ctaid=(126,0,0) tid=(31,0,0)
GPGPU-Sim PTX: 18500000 instructions simulated : ctaid=(185,0,0) tid=(31,0,0)
GPGPU-Sim PTX: 18600000 instructions simulated : ctaid=(123,0,0) tid=(159,0,0)
GPGPU-Sim PTX: 18700000 instructions simulated : ctaid=(127,0,0) tid=(255,0,0)
GPGPU-Sim uArch: cycles simulated: 20500  inst.: 18744256 (ipc=914.4) sim_rate=390505 (inst/sec) elapsed = 0:0:00:48 / Sat Mar  8 16:01:16 2014
GPGPU-Sim PTX: 18800000 instructions simulated : ctaid=(144,0,0) tid=(63,0,0)
GPGPU-Sim PTX: 18900000 instructions simulated : ctaid=(140,0,0) tid=(159,0,0)
GPGPU-Sim PTX: 19000000 instructions simulated : ctaid=(133,0,0) tid=(95,0,0)
GPGPU-Sim PTX: 19100000 instructions simulated : ctaid=(156,0,0) tid=(255,0,0)
GPGPU-Sim PTX: 19200000 instructions simulated : ctaid=(126,0,0) tid=(223,0,0)
GPGPU-Sim uArch: cycles simulated: 21000  inst.: 19263584 (ipc=917.3) sim_rate=393134 (inst/sec) elapsed = 0:0:00:49 / Sat Mar  8 16:01:17 2014
GPGPU-Sim PTX: 19300000 instructions simulated : ctaid=(186,0,0) tid=(127,0,0)
GPGPU-Sim PTX: 19400000 instructions simulated : ctaid=(170,0,0) tid=(159,0,0)
GPGPU-Sim PTX: 19500000 instructions simulated : ctaid=(137,0,0) tid=(95,0,0)
GPGPU-Sim PTX: 19600000 instructions simulated : ctaid=(136,0,0) tid=(159,0,0)
GPGPU-Sim PTX: 19700000 instructions simulated : ctaid=(151,0,0) tid=(255,0,0)
GPGPU-Sim uArch: cycles simulated: 21500  inst.: 19776224 (ipc=919.8) sim_rate=387769 (inst/sec) elapsed = 0:0:00:51 / Sat Mar  8 16:01:19 2014
GPGPU-Sim PTX: 19800000 instructions simulated : ctaid=(148,0,0) tid=(31,0,0)
GPGPU-Sim PTX: 19900000 instructions simulated : ctaid=(146,0,0) tid=(159,0,0)
GPGPU-Sim PTX: 20000000 instructions simulated : ctaid=(204,0,0) tid=(63,0,0)
GPGPU-Sim PTX: 20100000 instructions simulated : ctaid=(177,0,0) tid=(95,0,0)
GPGPU-Sim uArch: Shader 12 finished CTA #0 (21828,0), 3 CTAs running
GPGPU-Sim uArch: core: 12, cta: 0 initialized @(21829,0)
GPGPU-Sim PTX: 20200000 instructions simulated : ctaid=(165,0,0) tid=(159,0,0)
GPGPU-Sim uArch: Shader 21 finished CTA #0 (21915,0), 3 CTAs running
GPGPU-Sim uArch: core: 21, cta: 0 initialized @(21916,0)
GPGPU-Sim uArch: Shader 3 finished CTA #0 (21960,0), 3 CTAs running
GPGPU-Sim uArch: core:  3, cta: 0 initialized @(21961,0)
GPGPU-Sim uArch: Shader 0 finished CTA #0 (21970,0), 3 CTAs running
GPGPU-Sim uArch: core:  0, cta: 0 initialized @(21971,0)
[...]
GPGPU-Sim uArch: cycles simulated: 14000  inst.: 1211435 (ipc=86.5) sim_rate=242287 (inst/sec) elapsed = 0:0:00:05 / Sat Mar  8 16:48:56 2014
GPGPU-Sim uArch: cycles simulated: 25500  inst.: 1230196 (ipc=48.2) sim_rate=205032 (inst/sec) elapsed = 0:0:00:06 / Sat Mar  8 16:48:57 2014
GPGPU-Sim uArch: Shader 3 finished CTA #0 (28117,0), 0 CTAs running
GPGPU-Sim uArch: Shader 3 empty (release kernel 1 '_Z24solve_nqueen_cuda_kerneliiPjS_S_S_i').
GPGPU-Sim uArch: GPU detected kernel '_Z24solve_nqueen_cuda_kerneliiPjS_S_S_i' finished on shader 3.
kernel_name = _Z24solve_nqueen_cuda_kerneliiPjS_S_S_i 
kernel_launch_uid = 1 
gpu_sim_cycle = 28118
gpu_sim_insn = 1234342
gpu_ipc =      43.8986
gpu_tot_sim_cycle = 28118
gpu_tot_sim_insn = 1234342
gpu_tot_ipc =      43.8986
gpu_tot_issued_cta = 0
gpu_stall_dramfull = 0
gpu_stall_icnt2sh    = 238
gpu_total_sim_rate=205723

========= Core cache stats =========
L1I_cache:
	L1I_total_cache_accesses = 31161
	L1I_total_cache_misses = 1072
	L1I_total_cache_miss_rate = 0.0344
	L1I_total_cache_pending_hits = 0
	L1I_total_cache_reservation_fails = 0
L1D_cache:
	L1D_cache_core[0]: Access = 26, Miss = 26, Miss_rate = 1.000, Pending_hits = 0, Reservation_fails = 0
	L1D_cache_core[1]: Access = 29, Miss = 26, Miss_rate = 0.897, Pending_hits = 3, Reservation_fails = 0
	L1D_cache_core[2]: Access = 26, Miss = 26, Miss_rate = 1.000, Pending_hits = 0, Reservation_fails = 0
	L1D_cache_core[3]: Access = 26, Miss = 26, Miss_rate = 1.000, Pending_hits = 0, Reservation_fails = 0
	L1D_cache_core[4]: Access = 26, Miss = 26, Miss_rate = 1.000, Pending_hits = 0, Reservation_fails = 0
	L1D_cache_core[5]: Access = 26, Miss = 26, Miss_rate = 1.000, Pending_hits = 0, Reservation_fails = 0
	L1D_cache_core[6]: Access = 26, Miss = 26, Miss_rate = 1.000, Pending_hits = 0, Reservation_fails = 0
	L1D_cache_core[7]: Access = 26, Miss = 26, Miss_rate = 1.000, Pending_hits = 0, Reservation_fails = 0
	L1D_cache_core[8]: Access = 26, Miss = 26, Miss_rate = 1.000, Pending_hits = 0, Reservation_fails = 0
	L1D_cache_core[9]: Access = 25, Miss = 25, Miss_rate = 1.000, Pending_hits = 0, Reservation_fails = 0
	L1D_total_cache_accesses = 262
	L1D_total_cache_misses = 259
	L1D_total_cache_miss_rate = 0.9885
	L1D_total_cache_pending_hits = 3
	L1D_total_cache_reservation_fails = 0
	L1D_cache_data_port_util = 0.000
	L1D_cache_fill_port_util = 0.000
L1C_cache:
	L1C_total_cache_accesses = 1145
	L1C_total_cache_misses = 180
	L1C_total_cache_miss_rate = 0.1572
	L1C_total_cache_pending_hits = 0
	L1C_total_cache_reservation_fails = 0
L1T_cache:
	L1T_total_cache_accesses = 0
	L1T_total_cache_misses = 0
	L1T_total_cache_pending_hits = 0
	L1T_total_cache_reservation_fails = 0

Total_core_cache_stats:
	Total_core_cache_stats_breakdown[GLOBAL_ACC_R][HIT_RESERVED] = 3
	Total_core_cache_stats_breakdown[GLOBAL_ACC_R][MISS] = 3
	Total_core_cache_stats_breakdown[CONST_ACC_R][HIT] = 965
	Total_core_cache_stats_breakdown[CONST_ACC_R][MISS] = 180
	Total_core_cache_stats_breakdown[GLOBAL_ACC_W][MISS] = 256
	Total_core_cache_stats_breakdown[INST_ACC_R][HIT] = 30089
	Total_core_cache_stats_breakdown[INST_ACC_R][MISS] = 1072
Shader 0 warp_id issue ditsribution:
warp_id:
0, 1, 2, 3, 4, 5, 
distro:
415, 240, 240, 332, 192, 192, 
gpgpu_n_tot_thrd_icount = 1567840
gpgpu_n_tot_w_icount = 48995
gpgpu_n_stall_shd_mem = 4728
gpgpu_n_mem_read_local = 0
gpgpu_n_mem_write_local = 0
gpgpu_n_mem_read_global = 3
gpgpu_n_mem_write_global = 256
gpgpu_n_mem_texture = 0
gpgpu_n_mem_const = 30
gpgpu_n_load_insn  = 63
gpgpu_n_store_insn = 256
gpgpu_n_shmem_insn = 108516
gpgpu_n_tex_insn = 0
gpgpu_n_const_mem_insn = 0
gpgpu_n_param_mem_insn = 25919
gpgpu_n_shmem_bkconflict = 0
gpgpu_n_cache_bkconflict = 0
gpgpu_n_intrawarp_mshr_merge = 0
gpgpu_n_cmem_portconflict = 0
gpgpu_stall_shd_mem[c_mem][bk_conf] = 0
gpgpu_stall_shd_mem[c_mem][mshr_rc] = 0
gpgpu_stall_shd_mem[c_mem][icnt_rc] = 0
gpgpu_stall_shd_mem[c_mem][data_port_stall] = 0
gpgpu_stall_shd_mem[t_mem][mshr_rc] = 0
gpgpu_stall_shd_mem[t_mem][icnt_rc] = 0
gpgpu_stall_shd_mem[t_mem][data_port_stall] = 0
gpgpu_stall_shd_mem[s_mem][bk_conf] = 4725
gpgpu_stall_shd_mem[gl_mem][bk_conf] = 0
gpgpu_stall_shd_mem[gl_mem][coal_stall] = 3
gpgpu_stall_shd_mem[gl_mem][data_port_stall] = 0
gpgpu_stall_shd_mem[g_mem_ld][mshr_rc] = 0
gpgpu_stall_shd_mem[g_mem_ld][icnt_rc] = 0
gpgpu_stall_shd_mem[g_mem_ld][wb_icnt_rc] = 0
gpgpu_stall_shd_mem[g_mem_ld][wb_rsrv_fail] = 0
gpgpu_stall_shd_mem[g_mem_st][mshr_rc] = 0
gpgpu_stall_shd_mem[g_mem_st][icnt_rc] = 0
gpgpu_stall_shd_mem[g_mem_st][wb_icnt_rc] = 0
gpgpu_stall_shd_mem[g_mem_st][wb_rsrv_fail] = 0
gpgpu_stall_shd_mem[l_mem_ld][mshr_rc] = 0
gpgpu_stall_shd_mem[l_mem_ld][icnt_rc] = 0
gpgpu_stall_shd_mem[l_mem_ld][wb_icnt_rc] = 0
gpgpu_stall_shd_mem[l_mem_ld][wb_rsrv_fail] = 0
gpgpu_stall_shd_mem[l_mem_st][mshr_rc] = 0
gpgpu_stall_shd_mem[l_mem_st][icnt_rc] = 0
gpgpu_stall_shd_mem[l_mem_ld][wb_icnt_rc] = 0
gpgpu_stall_shd_mem[l_mem_ld][wb_rsrv_fail] = 0
gpu_reg_bank_conflict_stalls = 0
Warp Occupancy Distribution:
Stall:0	W0_Idle:85278	W0_Scoreboard:37431	W1:2921	W2:1384	W3:185	W4:1300	W5:373	W6:240	W7:370	W8:1395	W9:419	W10:467	W11:298	W12:461	W13:395	W14:148	W15:71	W16:1115	W17:20	W18:0	W19:0	W20:20	W21:807	W22:0	W23:0	W24:0	W25:0	W26:0	W27:0	W28:0	W29:0	W30:0	W31:0	W32:36606
traffic_breakdown_coretomem[CONST_ACC_R] = 240 {8:30,}
traffic_breakdown_coretomem[GLOBAL_ACC_R] = 24 {8:3,}
traffic_breakdown_coretomem[GLOBAL_ACC_W] = 10240 {40:256,}
traffic_breakdown_coretomem[INST_ACC_R] = 1480 {8:185,}
traffic_breakdown_memtocore[CONST_ACC_R] = 4080 {136:30,}
traffic_breakdown_memtocore[GLOBAL_ACC_R] = 408 {136:3,}
traffic_breakdown_memtocore[GLOBAL_ACC_W] = 2048 {8:256,}
traffic_breakdown_memtocore[INST_ACC_R] = 25160 {136:185,}
maxmrqlatency = 42 
maxdqlatency = 0 
maxmflatency = 118 
averagemflatency = 111 
max_icnt2mem_latency = 32 
max_icnt2sh_latency = 28117 
mrq_lat_table:444 	2 	2 	5 	10 	11 	0 	0 	0 	0 	0 	0 	0 	0 	0 	0 	0 	0 	0 	0 	0 	0 	0 	0 	0 	0 	0 	0 	0 	0 	0 	0 	
dq_lat_table:0 	0 	0 	0 	0 	0 	0 	0 	0 	0 	0 	0 	0 	0 	0 	0 	0 	0 	0 	0 	0 	0 	0 	0 	0 	0 	0 	0 	0 	0 	0 	0 	
mf_lat_table:0 	0 	0 	0 	0 	0 	289 	0 	0 	0 	0 	0 	0 	0 	0 	0 	0 	0 	0 	0 	0 	0 	0 	0 	0 	0 	0 	0 	0 	0 	0 	0 	
icnt2mem_lat_table:0 	0 	444 	11 	18 	1 	0 	0 	0 	0 	0 	0 	0 	0 	0 	0 	0 	0 	0 	0 	0 	0 	0 	0 	
icnt2sh_lat_table:0 	0 	3 	30 	0 	0 	0 	0 	0 	0 	118 	137 	0 	0 	1 	0 	0 	0 	0 	0 	0 	0 	0 	0 	
mf_lat_pw_table:0 	0 	0 	0 	0 	0 	7 	0 	0 	0 	0 	0 	0 	0 	0 	0 	0 	0 	0 	0 	0 	0 	0 	0 	0 	0 	0 	0 	0 	0 	0 	0 	
maximum concurrent accesses to same row:
dram[0]:        30         0         0         0         0         0         0         0 
dram[1]:         0         0         0         0         0         0         0         0 
dram[2]:         0         0         0         0         0         0         0         0 
dram[3]:         0         0         0         0         0         0         0         0 
dram[4]:         0         0         0         0         0         0         0         0 
dram[5]:         0         0         0         0         0         0         0         0 
dram[6]:         0         0         0         0         0         0         0         0 
dram[7]:         0         0         0         0         0         0         0         0 
maximum service time to same row:
dram[0]:       178         0      1258         0       841         0         0         0 
dram[1]:       838         0      1718         0         0         0         0         0 
dram[2]:      1230         0      2193         0         0         0         0         0 
dram[3]:       409         0      2661         0         0         0         0         0 
dram[4]:       746         0         0         0         0         0         0         0 
dram[5]:      1100         0         0         0         0         0         0         0 
dram[6]:         0         0         0         0         0         0         0         0 
dram[7]:         0         0         0         0         0         0         0         0 
average row accesses per activate:
dram[0]: 15.500000      -nan 64.000000      -nan  1.000000      -nan       inf      -nan 
dram[1]:  2.000000      -nan 64.000000      -nan      -nan      -nan      -nan      -nan 
dram[2]:  2.000000      -nan 64.000000      -nan      -nan      -nan      -nan      -nan 
dram[3]: 60.000000      -nan 64.000000      -nan      -nan      -nan      -nan      -nan 
dram[4]: 60.000000      -nan      -nan      -nan      -nan      -nan      -nan      -nan 
dram[5]: 30.000000      -nan      -nan      -nan      -nan      -nan      -nan      -nan 
dram[6]:      -nan      -nan      -nan      -nan      -nan      -nan      -nan      -nan 
dram[7]:      -nan      -nan      -nan      -nan      -nan      -nan      -nan      -nan 
average row locality = 474/14 = 33.857143
number of total memory accesses made:
dram[0]:         0         0         0         0         0         0         0         0 
dram[1]:         0         0         0         0         0         0         0         0 
dram[2]:         0         0         0         0         0         0         0         0 
dram[3]:         0         0         0         0         0         0         0         0 
dram[4]:         0         0         0         0         0         0         0         0 
dram[5]:         0         0         0         0         0         0         0         0 
dram[6]:         0         0         0         0         0         0         0         0 
dram[7]:         0         0         0         0         0         0         0         0 
total accesses: 0
min_bank_accesses = 0!
min_chip_accesses = 0!
number of total read accesses:
dram[0]:        62         0         0         0         1         0         1         0 
dram[1]:         2         0         0         0         0         0         0         0 
dram[2]:         2         0         0         0         0         0         0         0 
dram[3]:        60         0         0         0         0         0         0         0 
dram[4]:        60         0         0         0         0         0         0         0 
dram[5]:        30         0         0         0         0         0         0         0 
dram[6]:         0         0         0         0         0         0         0         0 
dram[7]:         0         0         0         0         0         0         0         0 
total reads: 218
min_bank_accesses = 0!
min_chip_accesses = 0!
number of total write accesses:
dram[0]:         0         0        64         0         0         0         0         0 
dram[1]:         0         0        64         0         0         0         0         0 
dram[2]:         0         0        64         0         0         0         0         0 
dram[3]:         0         0        64         0         0         0         0         0 
dram[4]:         0         0         0         0         0         0         0         0 
dram[5]:         0         0         0         0         0         0         0         0 
dram[6]:         0         0         0         0         0         0         0         0 
dram[7]:         0         0         0         0         0         0         0         0 
total reads: 256
min_bank_accesses = 0!
min_chip_accesses = 0!
average mf latency per bank:
dram[0]:         58    none         110    none         118    none         117    none  
dram[1]:          0    none         110    none      none      none      none      none  
dram[2]:          0    none         110    none      none      none      none      none  
dram[3]:          0    none         110    none      none      none      none      none  
dram[4]:          0    none      none      none      none      none      none      none  
dram[5]:          0    none      none      none      none      none      none      none  
dram[6]:     none      none      none      none      none      none      none      none  
dram[7]:     none      none      none      none      none      none      none      none  
maximum mf latency per bank:
dram[0]:        117         0       113         0       118         0       117         0
dram[1]:          0         0       114         0         0         0         0         0
dram[2]:          0         0       113         0         0         0         0         0
dram[3]:          0         0       114         0         0         0         0         0
dram[4]:          0         0         0         0         0         0         0         0
dram[5]:          0         0         0         0         0         0         0         0
dram[6]:          0         0         0         0         0         0         0         0
dram[7]:          0         0         0         0         0         0         0         0
Memory Partition 0: 
Cache L2_bank_000:
MSHR contents

In Dram Latency Queue (total = 0): 
DRAM[0]: 8 bks, busW=4 BL=4 CL=1, tRRD=2 tCCD=6, tRCD=12 tRAS=15 tRP=0 tRC=15
n_cmd=86514 n_nop=86184 n_act=7 n_pre=3 n_req=128 n_rd=256 n_write=64 bw_util=0.007398
n_activity=1037 dram_eff=0.6172
bk0: 248a 85998i bk1: 0a 86511i bk2: 0a 86439i bk3: 0a 86514i bk4: 4a 86495i bk5: 0a 86513i bk6: 4a 86494i bk7: 0a 86514i 
dram_util_bins: 0 0 0 0 0 0 0 0 0 0
dram_eff_bins: 0 0 0 0 0 0 0 0 0 0
mrqq: max=16 avg=0.0260536
Memory Partition 1: 
Cache L2_bank_001:
MSHR contents

In Dram Latency Queue (total = 0): 
DRAM[1]: 8 bks, busW=4 BL=4 CL=1, tRRD=2 tCCD=6, tRCD=12 tRAS=15 tRP=0 tRC=15
n_cmd=86514 n_nop=86440 n_act=2 n_pre=0 n_req=66 n_rd=8 n_write=64 bw_util=0.001664
n_activity=488 dram_eff=0.2951
bk0: 8a 86488i bk1: 0a 86514i bk2: 0a 86440i bk3: 0a 86514i bk4: 0a 86514i bk5: 0a 86514i bk6: 0a 86514i bk7: 0a 86514i 
dram_util_bins: 0 0 0 0 0 0 0 0 0 0
dram_eff_bins: 0 0 0 0 0 0 0 0 0 0
mrqq: max=0 avg=0
Memory Partition 2: 
Cache L2_bank_002:
MSHR contents

In Dram Latency Queue (total = 0): 
DRAM[2]: 8 bks, busW=4 BL=4 CL=1, tRRD=2 tCCD=6, tRCD=12 tRAS=15 tRP=0 tRC=15
n_cmd=86514 n_nop=86440 n_act=2 n_pre=0 n_req=66 n_rd=8 n_write=64 bw_util=0.001664
n_activity=505 dram_eff=0.2851
bk0: 8a 86488i bk1: 0a 86514i bk2: 0a 86440i bk3: 0a 86514i bk4: 0a 86514i bk5: 0a 86514i bk6: 0a 86514i bk7: 0a 86514i 
dram_util_bins: 0 0 0 0 0 0 0 0 0 0
dram_eff_bins: 0 0 0 0 0 0 0 0 0 0
mrqq: max=0 avg=0
Memory Partition 3: 
Cache L2_bank_003:
MSHR contents

In Dram Latency Queue (total = 0): 
DRAM[3]: 8 bks, busW=4 BL=4 CL=1, tRRD=2 tCCD=6, tRCD=12 tRAS=15 tRP=0 tRC=15
n_cmd=86514 n_nop=86208 n_act=2 n_pre=0 n_req=124 n_rd=240 n_write=64 bw_util=0.007028
n_activity=1068 dram_eff=0.5693
bk0: 240a 86079i bk1: 0a 86515i bk2: 0a 86440i bk3: 0a 86513i bk4: 0a 86513i bk5: 0a 86514i bk6: 0a 86514i bk7: 0a 86514i 
dram_util_bins: 0 0 0 0 0 0 0 0 0 0
dram_eff_bins: 0 0 0 0 0 0 0 0 0 0
mrqq: max=1 avg=9.24706e-05
Memory Partition 4: 
Cache L2_bank_004:
MSHR contents

In Dram Latency Queue (total = 0): 
DRAM[4]: 8 bks, busW=4 BL=4 CL=1, tRRD=2 tCCD=6, tRCD=12 tRAS=15 tRP=0 tRC=15
n_cmd=86514 n_nop=86273 n_act=1 n_pre=0 n_req=60 n_rd=240 n_write=0 bw_util=0.005548
n_activity=608 dram_eff=0.7895
bk0: 240a 86080i bk1: 0a 86514i bk2: 0a 86514i bk3: 0a 86514i bk4: 0a 86514i bk5: 0a 86514i bk6: 0a 86514i bk7: 0a 86514i 
dram_util_bins: 0 0 0 0 0 0 0 0 0 0
dram_eff_bins: 0 0 0 0 0 0 0 0 0 0
mrqq: max=1 avg=5.77941e-05
Memory Partition 5: 
Cache L2_bank_005:
MSHR contents

In Dram Latency Queue (total = 0): 
DRAM[5]: 8 bks, busW=4 BL=4 CL=1, tRRD=2 tCCD=6, tRCD=12 tRAS=15 tRP=0 tRC=15
n_cmd=86514 n_nop=86393 n_act=1 n_pre=0 n_req=30 n_rd=120 n_write=0 bw_util=0.002774
n_activity=308 dram_eff=0.7792
bk0: 120a 86290i bk1: 0a 86514i bk2: 0a 86514i bk3: 0a 86514i bk4: 0a 86514i bk5: 0a 86514i bk6: 0a 86514i bk7: 0a 86514i 
dram_util_bins: 0 0 0 0 0 0 0 0 0 0
dram_eff_bins: 0 0 0 0 0 0 0 0 0 0
mrqq: max=1 avg=6.93529e-05
Memory Partition 6: 
Cache L2_bank_006:
MSHR contents

In Dram Latency Queue (total = 0): 
DRAM[6]: 8 bks, busW=4 BL=4 CL=1, tRRD=2 tCCD=6, tRCD=12 tRAS=15 tRP=0 tRC=15
n_cmd=86514 n_nop=86514 n_act=0 n_pre=0 n_req=0 n_rd=0 n_write=0 bw_util=0
n_activity=0 dram_eff=-nan
bk0: 0a 86514i bk1: 0a 86514i bk2: 0a 86514i bk3: 0a 86514i bk4: 0a 86514i bk5: 0a 86514i bk6: 0a 86514i bk7: 0a 86514i 
dram_util_bins: 0 0 0 0 0 0 0 0 0 0
dram_eff_bins: 0 0 0 0 0 0 0 0 0 0
mrqq: max=0 avg=0
Memory Partition 7: 
Cache L2_bank_007:
MSHR contents

In Dram Latency Queue (total = 0): 
DRAM[7]: 8 bks, busW=4 BL=4 CL=1, tRRD=2 tCCD=6, tRCD=12 tRAS=15 tRP=0 tRC=15
n_cmd=86514 n_nop=86514 n_act=0 n_pre=0 n_req=0 n_rd=0 n_write=0 bw_util=0
n_activity=0 dram_eff=-nan
bk0: 0a 86514i bk1: 0a 86514i bk2: 0a 86514i bk3: 0a 86514i bk4: 0a 86514i bk5: 0a 86514i bk6: 0a 86514i bk7: 0a 86514i 
dram_util_bins: 0 0 0 0 0 0 0 0 0 0
dram_eff_bins: 0 0 0 0 0 0 0 0 0 0
mrqq: max=0 avg=0

========= L2 cache stats =========
L2_cache_bank[0]: Access = 0, Miss = 0, Miss_rate = -nan, Pending_hits = 0, Reservation_fails = 0
L2_cache_bank[1]: Access = 0, Miss = 0, Miss_rate = -nan, Pending_hits = 0, Reservation_fails = 0
L2_cache_bank[2]: Access = 0, Miss = 0, Miss_rate = -nan, Pending_hits = 0, Reservation_fails = 0
L2_cache_bank[3]: Access = 0, Miss = 0, Miss_rate = -nan, Pending_hits = 0, Reservation_fails = 0
L2_cache_bank[4]: Access = 0, Miss = 0, Miss_rate = -nan, Pending_hits = 0, Reservation_fails = 0
L2_cache_bank[5]: Access = 0, Miss = 0, Miss_rate = -nan, Pending_hits = 0, Reservation_fails = 0
L2_cache_bank[6]: Access = 0, Miss = 0, Miss_rate = -nan, Pending_hits = 0, Reservation_fails = 0
L2_cache_bank[7]: Access = 0, Miss = 0, Miss_rate = -nan, Pending_hits = 0, Reservation_fails = 0
L2_total_cache_accesses = 0
L2_total_cache_misses = 0
L2_total_cache_pending_hits = 0
L2_total_cache_reservation_fails = 0
L2_total_cache_breakdown:
L2_cache_data_port_util = 0.000
L2_cache_fill_port_util = 0.000

icnt_total_pkts_mem_to_simt=1346
icnt_total_pkts_simt_to_mem=730
LD_mem_lat_dist  0 0 0 0 0 0 0 0 0 0 0 0 0 0 0 0 0 0 0 0 0 0 0 0 0 0 0
ST_mem_lat_dist  0 0 0 0 0 0 0 0 0 0 0 0 0 0 0 0 0 0 0 0 0 0 0 0 0 0 0
----------------------------Interconnect-DETAILS--------------------------------
Class 0:
Packet latency average = 11.6582
	minimum = 8
	maximum = 62
Network latency average = 10.6951
	minimum = 8
	maximum = 62
Slowest packet = 29
Flit latency average = 8.59923
	minimum = 6
	maximum = 62
Slowest flit = 29
Fragmentation average = 0.229958
	minimum = 0
	maximum = 1
Injected packet rate average = 0.000936563
	minimum = 0 (at node 16)
	maximum = 0.0022762 (at node 10)
Accepted packet rate average = 0.000936563
	minimum = 0 (at node 16)
	maximum = 0.0022762 (at node 10)
Injected flit rate average = 0.00205095
	minimum = 0 (at node 16)
	maximum = 0.00682861 (at node 10)
Accepted flit rate average= 0.00205095
	minimum = 0 (at node 16)
	maximum = 0.0034143 (at node 10)
Injected packet length average = 2.18987
Accepted packet length average = 2.18987
Total in-flight flits = 0 (0 measured)
====== Overall Traffic Statistics ======
====== Traffic class 0 ======
Packet latency average = 11.6582 (1 samples)
	minimum = 8 (1 samples)
	maximum = 62 (1 samples)
Network latency average = 10.6951 (1 samples)
	minimum = 8 (1 samples)
	maximum = 62 (1 samples)
Flit latency average = 8.59923 (1 samples)
	minimum = 6 (1 samples)
	maximum = 62 (1 samples)
Fragmentation average = 0.229958 (1 samples)
	minimum = 0 (1 samples)
	maximum = 1 (1 samples)
Injected packet rate average = 0.000936563 (1 samples)
	minimum = 0 (1 samples)
	maximum = 0.0022762 (1 samples)
Accepted packet rate average = 0.000936563 (1 samples)
	minimum = 0 (1 samples)
	maximum = 0.0022762 (1 samples)
Injected flit rate average = 0.00205095 (1 samples)
	minimum = 0 (1 samples)
	maximum = 0.00682861 (1 samples)
Accepted flit rate average = 0.00205095 (1 samples)
	minimum = 0 (1 samples)
	maximum = 0.0034143 (1 samples)
Injected packet size average = 2.18987 (1 samples)
Accepted packet size average = 2.18987 (1 samples)
Hops average = 1 (1 samples)
----
